* NGSPICE file created from fpgacell.ext - technology: sky130A

* Black-box entry subcircuit for sky130_fd_sc_hd__fill_1 abstract view
.subckt sky130_fd_sc_hd__fill_1 VGND VNB VPB VPWR
.ends

* Black-box entry subcircuit for sky130_fd_sc_hd__o21ai_1 abstract view
.subckt sky130_fd_sc_hd__o21ai_1 A1 A2 B1 VGND VNB VPB VPWR Y
.ends

* Black-box entry subcircuit for sky130_fd_sc_hd__dfstp_1 abstract view
.subckt sky130_fd_sc_hd__dfstp_1 CLK D SET_B VGND VNB VPB VPWR Q
.ends

* Black-box entry subcircuit for sky130_fd_sc_hd__and2_2 abstract view
.subckt sky130_fd_sc_hd__and2_2 A B VGND VNB VPB VPWR X
.ends

* Black-box entry subcircuit for sky130_fd_sc_hd__dfrtp_1 abstract view
.subckt sky130_fd_sc_hd__dfrtp_1 CLK D RESET_B VGND VNB VPB VPWR Q
.ends

* Black-box entry subcircuit for sky130_fd_sc_hd__tapvpwrvgnd_1 abstract view
.subckt sky130_fd_sc_hd__tapvpwrvgnd_1 VGND VPWR
.ends

* Black-box entry subcircuit for sky130_fd_sc_hd__nor3_1 abstract view
.subckt sky130_fd_sc_hd__nor3_1 A B C VGND VNB VPB VPWR Y
.ends

* Black-box entry subcircuit for sky130_fd_sc_hd__a21o_1 abstract view
.subckt sky130_fd_sc_hd__a21o_1 A1 A2 B1 VGND VNB VPB VPWR X
.ends

* Black-box entry subcircuit for sky130_fd_sc_hd__mux2_1 abstract view
.subckt sky130_fd_sc_hd__mux2_1 A0 A1 S VGND VNB VPB VPWR X
.ends

* Black-box entry subcircuit for sky130_fd_sc_hd__clkbuf_2 abstract view
.subckt sky130_fd_sc_hd__clkbuf_2 A VGND VNB VPB VPWR X
.ends

* Black-box entry subcircuit for sky130_fd_sc_hd__inv_2 abstract view
.subckt sky130_fd_sc_hd__inv_2 A VGND VNB VPB VPWR Y
.ends

* Black-box entry subcircuit for sky130_fd_sc_hd__buf_2 abstract view
.subckt sky130_fd_sc_hd__buf_2 A VGND VNB VPB VPWR X
.ends

* Black-box entry subcircuit for sky130_fd_sc_hd__and2_1 abstract view
.subckt sky130_fd_sc_hd__and2_1 A B VGND VNB VPB VPWR X
.ends

* Black-box entry subcircuit for sky130_fd_sc_hd__nand2_1 abstract view
.subckt sky130_fd_sc_hd__nand2_1 A B VGND VNB VPB VPWR Y
.ends

* Black-box entry subcircuit for sky130_fd_sc_hd__decap_3 abstract view
.subckt sky130_fd_sc_hd__decap_3 VGND VNB VPB VPWR
.ends

* Black-box entry subcircuit for sky130_fd_sc_hd__o21a_1 abstract view
.subckt sky130_fd_sc_hd__o21a_1 A1 A2 B1 VGND VNB VPB VPWR X
.ends

* Black-box entry subcircuit for sky130_fd_sc_hd__a211oi_1 abstract view
.subckt sky130_fd_sc_hd__a211oi_1 A1 A2 B1 C1 VGND VNB VPB VPWR Y
.ends

* Black-box entry subcircuit for sky130_fd_sc_hd__fill_2 abstract view
.subckt sky130_fd_sc_hd__fill_2 VGND VNB VPB VPWR
.ends

* Black-box entry subcircuit for sky130_fd_sc_hd__decap_4 abstract view
.subckt sky130_fd_sc_hd__decap_4 VGND VNB VPB VPWR
.ends

* Black-box entry subcircuit for sky130_fd_sc_hd__nor2_1 abstract view
.subckt sky130_fd_sc_hd__nor2_1 A B VGND VNB VPB VPWR Y
.ends

* Black-box entry subcircuit for sky130_fd_sc_hd__mux4_1 abstract view
.subckt sky130_fd_sc_hd__mux4_1 A0 A1 A2 A3 S0 S1 VGND VNB VPB VPWR X
.ends

* Black-box entry subcircuit for sky130_fd_sc_hd__o211a_1 abstract view
.subckt sky130_fd_sc_hd__o211a_1 A1 A2 B1 C1 VGND VNB VPB VPWR X
.ends

* Black-box entry subcircuit for sky130_fd_sc_hd__o2111a_1 abstract view
.subckt sky130_fd_sc_hd__o2111a_1 A1 A2 B1 C1 D1 VGND VNB VPB VPWR X
.ends

* Black-box entry subcircuit for sky130_fd_sc_hd__or4b_1 abstract view
.subckt sky130_fd_sc_hd__or4b_1 A B C D_N VGND VNB VPB VPWR X
.ends

* Black-box entry subcircuit for sky130_fd_sc_hd__decap_8 abstract view
.subckt sky130_fd_sc_hd__decap_8 VGND VNB VPB VPWR
.ends

* Black-box entry subcircuit for sky130_fd_sc_hd__nand2b_2 abstract view
.subckt sky130_fd_sc_hd__nand2b_2 A_N B VGND VNB VPB VPWR Y
.ends

* Black-box entry subcircuit for sky130_fd_sc_hd__o211ai_1 abstract view
.subckt sky130_fd_sc_hd__o211ai_1 A1 A2 B1 C1 VGND VNB VPB VPWR Y
.ends

* Black-box entry subcircuit for sky130_fd_sc_hd__dlygate4sd3_1 abstract view
.subckt sky130_fd_sc_hd__dlygate4sd3_1 A VGND VNB VPB VPWR X
.ends

* Black-box entry subcircuit for sky130_fd_sc_hd__diode_2 abstract view
.subckt sky130_fd_sc_hd__diode_2 DIODE VGND VNB VPB VPWR
.ends

* Black-box entry subcircuit for sky130_fd_sc_hd__a221o_1 abstract view
.subckt sky130_fd_sc_hd__a221o_1 A1 A2 B1 B2 C1 VGND VNB VPB VPWR X
.ends

* Black-box entry subcircuit for sky130_fd_sc_hd__o221a_2 abstract view
.subckt sky130_fd_sc_hd__o221a_2 A1 A2 B1 B2 C1 VGND VNB VPB VPWR X
.ends

* Black-box entry subcircuit for sky130_fd_sc_hd__o221a_1 abstract view
.subckt sky130_fd_sc_hd__o221a_1 A1 A2 B1 B2 C1 VGND VNB VPB VPWR X
.ends

* Black-box entry subcircuit for sky130_fd_sc_hd__dfstp_2 abstract view
.subckt sky130_fd_sc_hd__dfstp_2 CLK D SET_B VGND VNB VPB VPWR Q
.ends

* Black-box entry subcircuit for sky130_fd_sc_hd__a211o_1 abstract view
.subckt sky130_fd_sc_hd__a211o_1 A1 A2 B1 C1 VGND VNB VPB VPWR X
.ends

* Black-box entry subcircuit for sky130_fd_sc_hd__o2bb2a_1 abstract view
.subckt sky130_fd_sc_hd__o2bb2a_1 A1_N A2_N B1 B2 VGND VNB VPB VPWR X
.ends

* Black-box entry subcircuit for sky130_fd_sc_hd__a41o_1 abstract view
.subckt sky130_fd_sc_hd__a41o_1 A1 A2 A3 A4 B1 VGND VNB VPB VPWR X
.ends

* Black-box entry subcircuit for sky130_ef_sc_hd__decap_12 abstract view
.subckt sky130_ef_sc_hd__decap_12 VPWR VGND VPB VNB
.ends

* Black-box entry subcircuit for sky130_fd_sc_hd__o22a_1 abstract view
.subckt sky130_fd_sc_hd__o22a_1 A1 A2 B1 B2 VGND VNB VPB VPWR X
.ends

* Black-box entry subcircuit for sky130_fd_sc_hd__a21bo_1 abstract view
.subckt sky130_fd_sc_hd__a21bo_1 A1 A2 B1_N VGND VNB VPB VPWR X
.ends

* Black-box entry subcircuit for sky130_fd_sc_hd__a21boi_1 abstract view
.subckt sky130_fd_sc_hd__a21boi_1 A1 A2 B1_N VGND VNB VPB VPWR Y
.ends

* Black-box entry subcircuit for sky130_fd_sc_hd__a22o_1 abstract view
.subckt sky130_fd_sc_hd__a22o_1 A1 A2 B1 B2 VGND VNB VPB VPWR X
.ends

* Black-box entry subcircuit for sky130_fd_sc_hd__and4_1 abstract view
.subckt sky130_fd_sc_hd__and4_1 A B C D VGND VNB VPB VPWR X
.ends

* Black-box entry subcircuit for sky130_fd_sc_hd__and2b_2 abstract view
.subckt sky130_fd_sc_hd__and2b_2 A_N B VGND VNB VPB VPWR X
.ends

* Black-box entry subcircuit for sky130_fd_sc_hd__nand2b_1 abstract view
.subckt sky130_fd_sc_hd__nand2b_1 A_N B VGND VNB VPB VPWR Y
.ends

* Black-box entry subcircuit for sky130_fd_sc_hd__decap_6 abstract view
.subckt sky130_fd_sc_hd__decap_6 VGND VNB VPB VPWR
.ends

* Black-box entry subcircuit for sky130_fd_sc_hd__a31o_1 abstract view
.subckt sky130_fd_sc_hd__a31o_1 A1 A2 A3 B1 VGND VNB VPB VPWR X
.ends

* Black-box entry subcircuit for sky130_fd_sc_hd__mux4_2 abstract view
.subckt sky130_fd_sc_hd__mux4_2 A0 A1 A2 A3 S0 S1 VGND VNB VPB VPWR X
.ends

* Black-box entry subcircuit for sky130_fd_sc_hd__or2_1 abstract view
.subckt sky130_fd_sc_hd__or2_1 A B VGND VNB VPB VPWR X
.ends

* Black-box entry subcircuit for sky130_fd_sc_hd__o21ba_1 abstract view
.subckt sky130_fd_sc_hd__o21ba_1 A1 A2 B1_N VGND VNB VPB VPWR X
.ends

* Black-box entry subcircuit for sky130_fd_sc_hd__a31oi_1 abstract view
.subckt sky130_fd_sc_hd__a31oi_1 A1 A2 A3 B1 VGND VNB VPB VPWR Y
.ends

* Black-box entry subcircuit for sky130_fd_sc_hd__o31a_1 abstract view
.subckt sky130_fd_sc_hd__o31a_1 A1 A2 A3 B1 VGND VNB VPB VPWR X
.ends

* Black-box entry subcircuit for sky130_fd_sc_hd__and2b_1 abstract view
.subckt sky130_fd_sc_hd__and2b_1 A_N B VGND VNB VPB VPWR X
.ends

* Black-box entry subcircuit for sky130_fd_sc_hd__a311o_1 abstract view
.subckt sky130_fd_sc_hd__a311o_1 A1 A2 A3 B1 C1 VGND VNB VPB VPWR X
.ends

* Black-box entry subcircuit for sky130_fd_sc_hd__nand3_4 abstract view
.subckt sky130_fd_sc_hd__nand3_4 A B C VGND VNB VPB VPWR Y
.ends

* Black-box entry subcircuit for sky130_fd_sc_hd__a21oi_1 abstract view
.subckt sky130_fd_sc_hd__a21oi_1 A1 A2 B1 VGND VNB VPB VPWR Y
.ends

* Black-box entry subcircuit for sky130_fd_sc_hd__a211o_2 abstract view
.subckt sky130_fd_sc_hd__a211o_2 A1 A2 B1 C1 VGND VNB VPB VPWR X
.ends

* Black-box entry subcircuit for sky130_fd_sc_hd__a31o_2 abstract view
.subckt sky130_fd_sc_hd__a31o_2 A1 A2 A3 B1 VGND VNB VPB VPWR X
.ends

* Black-box entry subcircuit for sky130_fd_sc_hd__o31ai_1 abstract view
.subckt sky130_fd_sc_hd__o31ai_1 A1 A2 A3 B1 VGND VNB VPB VPWR Y
.ends

* Black-box entry subcircuit for sky130_fd_sc_hd__a2bb2o_1 abstract view
.subckt sky130_fd_sc_hd__a2bb2o_1 A1_N A2_N B1 B2 VGND VNB VPB VPWR X
.ends

* Black-box entry subcircuit for sky130_fd_sc_hd__o32a_1 abstract view
.subckt sky130_fd_sc_hd__o32a_1 A1 A2 A3 B1 B2 VGND VNB VPB VPWR X
.ends

* Black-box entry subcircuit for sky130_fd_sc_hd__o31ai_4 abstract view
.subckt sky130_fd_sc_hd__o31ai_4 A1 A2 A3 B1 VGND VNB VPB VPWR Y
.ends

* Black-box entry subcircuit for sky130_fd_sc_hd__nand3_1 abstract view
.subckt sky130_fd_sc_hd__nand3_1 A B C VGND VNB VPB VPWR Y
.ends

* Black-box entry subcircuit for sky130_fd_sc_hd__or3_1 abstract view
.subckt sky130_fd_sc_hd__or3_1 A B C VGND VNB VPB VPWR X
.ends

* Black-box entry subcircuit for sky130_fd_sc_hd__clkbuf_8 abstract view
.subckt sky130_fd_sc_hd__clkbuf_8 A VGND VNB VPB VPWR X
.ends

* Black-box entry subcircuit for sky130_fd_sc_hd__clkbuf_4 abstract view
.subckt sky130_fd_sc_hd__clkbuf_4 A VGND VNB VPB VPWR X
.ends

* Black-box entry subcircuit for sky130_fd_sc_hd__o32a_4 abstract view
.subckt sky130_fd_sc_hd__o32a_4 A1 A2 A3 B1 B2 VGND VNB VPB VPWR X
.ends

* Black-box entry subcircuit for sky130_fd_sc_hd__o21ai_2 abstract view
.subckt sky130_fd_sc_hd__o21ai_2 A1 A2 B1 VGND VNB VPB VPWR Y
.ends

* Black-box entry subcircuit for sky130_fd_sc_hd__and3_1 abstract view
.subckt sky130_fd_sc_hd__and3_1 A B C VGND VNB VPB VPWR X
.ends

* Black-box entry subcircuit for sky130_fd_sc_hd__clkinvlp_4 abstract view
.subckt sky130_fd_sc_hd__clkinvlp_4 A VGND VNB VPB VPWR Y
.ends

* Black-box entry subcircuit for sky130_fd_sc_hd__and4b_1 abstract view
.subckt sky130_fd_sc_hd__and4b_1 A_N B C D VGND VNB VPB VPWR X
.ends

* Black-box entry subcircuit for sky130_fd_sc_hd__nand2_4 abstract view
.subckt sky130_fd_sc_hd__nand2_4 A B VGND VNB VPB VPWR Y
.ends

* Black-box entry subcircuit for sky130_fd_sc_hd__or4b_2 abstract view
.subckt sky130_fd_sc_hd__or4b_2 A B C D_N VGND VNB VPB VPWR X
.ends

* Black-box entry subcircuit for sky130_fd_sc_hd__inv_8 abstract view
.subckt sky130_fd_sc_hd__inv_8 A VGND VNB VPB VPWR Y
.ends

* Black-box entry subcircuit for sky130_fd_sc_hd__or4bb_1 abstract view
.subckt sky130_fd_sc_hd__or4bb_1 A B C_N D_N VGND VNB VPB VPWR X
.ends

* Black-box entry subcircuit for sky130_fd_sc_hd__or3b_1 abstract view
.subckt sky130_fd_sc_hd__or3b_1 A B C_N VGND VNB VPB VPWR X
.ends

* Black-box entry subcircuit for sky130_fd_sc_hd__clkinv_2 abstract view
.subckt sky130_fd_sc_hd__clkinv_2 A VGND VNB VPB VPWR Y
.ends

* Black-box entry subcircuit for sky130_fd_sc_hd__a22oi_1 abstract view
.subckt sky130_fd_sc_hd__a22oi_1 A1 A2 B1 B2 VGND VNB VPB VPWR Y
.ends

* Black-box entry subcircuit for sky130_fd_sc_hd__clkbuf_16 abstract view
.subckt sky130_fd_sc_hd__clkbuf_16 A VGND VNB VPB VPWR X
.ends

* Black-box entry subcircuit for sky130_fd_sc_hd__clkinv_4 abstract view
.subckt sky130_fd_sc_hd__clkinv_4 A VGND VNB VPB VPWR Y
.ends

* Black-box entry subcircuit for sky130_fd_sc_hd__xor2_2 abstract view
.subckt sky130_fd_sc_hd__xor2_2 A B VGND VNB VPB VPWR X
.ends

* Black-box entry subcircuit for sky130_fd_sc_hd__o221ai_4 abstract view
.subckt sky130_fd_sc_hd__o221ai_4 A1 A2 B1 B2 C1 VGND VNB VPB VPWR Y
.ends

* Black-box entry subcircuit for sky130_fd_sc_hd__or4_1 abstract view
.subckt sky130_fd_sc_hd__or4_1 A B C D VGND VNB VPB VPWR X
.ends

* Black-box entry subcircuit for sky130_fd_sc_hd__clkinv_8 abstract view
.subckt sky130_fd_sc_hd__clkinv_8 A VGND VNB VPB VPWR Y
.ends

* Black-box entry subcircuit for sky130_fd_sc_hd__xnor2_1 abstract view
.subckt sky130_fd_sc_hd__xnor2_1 A B VGND VNB VPB VPWR Y
.ends

* Black-box entry subcircuit for sky130_fd_sc_hd__nand2_2 abstract view
.subckt sky130_fd_sc_hd__nand2_2 A B VGND VNB VPB VPWR Y
.ends

* Black-box entry subcircuit for sky130_fd_sc_hd__o22ai_1 abstract view
.subckt sky130_fd_sc_hd__o22ai_1 A1 A2 B1 B2 VGND VNB VPB VPWR Y
.ends

* Black-box entry subcircuit for sky130_fd_sc_hd__a211oi_2 abstract view
.subckt sky130_fd_sc_hd__a211oi_2 A1 A2 B1 C1 VGND VNB VPB VPWR Y
.ends

* Black-box entry subcircuit for sky130_fd_sc_hd__a21bo_2 abstract view
.subckt sky130_fd_sc_hd__a21bo_2 A1 A2 B1_N VGND VNB VPB VPWR X
.ends

* Black-box entry subcircuit for sky130_fd_sc_hd__o311a_2 abstract view
.subckt sky130_fd_sc_hd__o311a_2 A1 A2 A3 B1 C1 VGND VNB VPB VPWR X
.ends

* Black-box entry subcircuit for sky130_fd_sc_hd__inv_12 abstract view
.subckt sky130_fd_sc_hd__inv_12 A VGND VNB VPB VPWR Y
.ends

* Black-box entry subcircuit for sky130_fd_sc_hd__inv_6 abstract view
.subckt sky130_fd_sc_hd__inv_6 A VGND VNB VPB VPWR Y
.ends

* Black-box entry subcircuit for sky130_fd_sc_hd__a311oi_1 abstract view
.subckt sky130_fd_sc_hd__a311oi_1 A1 A2 A3 B1 C1 VGND VNB VPB VPWR Y
.ends

* Black-box entry subcircuit for sky130_fd_sc_hd__o21bai_1 abstract view
.subckt sky130_fd_sc_hd__o21bai_1 A1 A2 B1_N VGND VNB VPB VPWR Y
.ends

* Black-box entry subcircuit for sky130_fd_sc_hd__a311oi_2 abstract view
.subckt sky130_fd_sc_hd__a311oi_2 A1 A2 A3 B1 C1 VGND VNB VPB VPWR Y
.ends

* Black-box entry subcircuit for sky130_fd_sc_hd__a32oi_4 abstract view
.subckt sky130_fd_sc_hd__a32oi_4 A1 A2 A3 B1 B2 VGND VNB VPB VPWR Y
.ends

* Black-box entry subcircuit for sky130_fd_sc_hd__a2bb2o_2 abstract view
.subckt sky130_fd_sc_hd__a2bb2o_2 A1_N A2_N B1 B2 VGND VNB VPB VPWR X
.ends

* Black-box entry subcircuit for sky130_fd_sc_hd__o31a_4 abstract view
.subckt sky130_fd_sc_hd__o31a_4 A1 A2 A3 B1 VGND VNB VPB VPWR X
.ends

* Black-box entry subcircuit for sky130_fd_sc_hd__a32o_1 abstract view
.subckt sky130_fd_sc_hd__a32o_1 A1 A2 A3 B1 B2 VGND VNB VPB VPWR X
.ends

* Black-box entry subcircuit for sky130_fd_sc_hd__a32oi_2 abstract view
.subckt sky130_fd_sc_hd__a32oi_2 A1 A2 A3 B1 B2 VGND VNB VPB VPWR Y
.ends

* Black-box entry subcircuit for sky130_fd_sc_hd__clkbuf_1 abstract view
.subckt sky130_fd_sc_hd__clkbuf_1 A VGND VNB VPB VPWR X
.ends

* Black-box entry subcircuit for sky130_fd_sc_hd__and4bb_1 abstract view
.subckt sky130_fd_sc_hd__and4bb_1 A_N B_N C D VGND VNB VPB VPWR X
.ends

* Black-box entry subcircuit for sky130_fd_sc_hd__a221o_2 abstract view
.subckt sky130_fd_sc_hd__a221o_2 A1 A2 B1 B2 C1 VGND VNB VPB VPWR X
.ends

* Black-box entry subcircuit for sky130_fd_sc_hd__buf_1 abstract view
.subckt sky130_fd_sc_hd__buf_1 A VGND VNB VPB VPWR X
.ends

* Black-box entry subcircuit for sky130_fd_sc_hd__inv_16 abstract view
.subckt sky130_fd_sc_hd__inv_16 A VGND VNB VPB VPWR Y
.ends

* Black-box entry subcircuit for sky130_fd_sc_hd__o311a_4 abstract view
.subckt sky130_fd_sc_hd__o311a_4 A1 A2 A3 B1 C1 VGND VNB VPB VPWR X
.ends

* Black-box entry subcircuit for sky130_fd_sc_hd__or2_2 abstract view
.subckt sky130_fd_sc_hd__or2_2 A B VGND VNB VPB VPWR X
.ends

* Black-box entry subcircuit for sky130_fd_sc_hd__or3b_2 abstract view
.subckt sky130_fd_sc_hd__or3b_2 A B C_N VGND VNB VPB VPWR X
.ends

* Black-box entry subcircuit for sky130_fd_sc_hd__o211ai_2 abstract view
.subckt sky130_fd_sc_hd__o211ai_2 A1 A2 B1 C1 VGND VNB VPB VPWR Y
.ends

* Black-box entry subcircuit for sky130_fd_sc_hd__and3_2 abstract view
.subckt sky130_fd_sc_hd__and3_2 A B C VGND VNB VPB VPWR X
.ends

* Black-box entry subcircuit for sky130_fd_sc_hd__dlymetal6s2s_1 abstract view
.subckt sky130_fd_sc_hd__dlymetal6s2s_1 A VGND VNB VPB VPWR X
.ends

* Black-box entry subcircuit for sky130_fd_sc_hd__a2111oi_1 abstract view
.subckt sky130_fd_sc_hd__a2111oi_1 A1 A2 B1 C1 D1 VGND VNB VPB VPWR Y
.ends

* Black-box entry subcircuit for sky130_fd_sc_hd__o221a_4 abstract view
.subckt sky130_fd_sc_hd__o221a_4 A1 A2 B1 B2 C1 VGND VNB VPB VPWR X
.ends

* Black-box entry subcircuit for sky130_fd_sc_hd__buf_4 abstract view
.subckt sky130_fd_sc_hd__buf_4 A VGND VNB VPB VPWR X
.ends

* Black-box entry subcircuit for sky130_fd_sc_hd__o311a_1 abstract view
.subckt sky130_fd_sc_hd__o311a_1 A1 A2 A3 B1 C1 VGND VNB VPB VPWR X
.ends

* Black-box entry subcircuit for sky130_fd_sc_hd__nor2_2 abstract view
.subckt sky130_fd_sc_hd__nor2_2 A B VGND VNB VPB VPWR Y
.ends

* Black-box entry subcircuit for sky130_fd_sc_hd__o211ai_4 abstract view
.subckt sky130_fd_sc_hd__o211ai_4 A1 A2 B1 C1 VGND VNB VPB VPWR Y
.ends

* Black-box entry subcircuit for sky130_fd_sc_hd__a221oi_2 abstract view
.subckt sky130_fd_sc_hd__a221oi_2 A1 A2 B1 B2 C1 VGND VNB VPB VPWR Y
.ends

* Black-box entry subcircuit for sky130_fd_sc_hd__a21oi_4 abstract view
.subckt sky130_fd_sc_hd__a21oi_4 A1 A2 B1 VGND VNB VPB VPWR Y
.ends

* Black-box entry subcircuit for sky130_fd_sc_hd__a22o_2 abstract view
.subckt sky130_fd_sc_hd__a22o_2 A1 A2 B1 B2 VGND VNB VPB VPWR X
.ends

* Black-box entry subcircuit for sky130_fd_sc_hd__a22oi_4 abstract view
.subckt sky130_fd_sc_hd__a22oi_4 A1 A2 B1 B2 VGND VNB VPB VPWR Y
.ends

* Black-box entry subcircuit for sky130_fd_sc_hd__or4_2 abstract view
.subckt sky130_fd_sc_hd__or4_2 A B C D VGND VNB VPB VPWR X
.ends

* Black-box entry subcircuit for sky130_fd_sc_hd__a21o_2 abstract view
.subckt sky130_fd_sc_hd__a21o_2 A1 A2 B1 VGND VNB VPB VPWR X
.ends

* Black-box entry subcircuit for sky130_fd_sc_hd__a2111o_1 abstract view
.subckt sky130_fd_sc_hd__a2111o_1 A1 A2 B1 C1 D1 VGND VNB VPB VPWR X
.ends

* Black-box entry subcircuit for sky130_fd_sc_hd__nand4b_1 abstract view
.subckt sky130_fd_sc_hd__nand4b_1 A_N B C D VGND VNB VPB VPWR Y
.ends

* Black-box entry subcircuit for sky130_fd_sc_hd__nor3b_1 abstract view
.subckt sky130_fd_sc_hd__nor3b_1 A B C_N VGND VNB VPB VPWR Y
.ends

* Black-box entry subcircuit for sky130_fd_sc_hd__a211oi_4 abstract view
.subckt sky130_fd_sc_hd__a211oi_4 A1 A2 B1 C1 VGND VNB VPB VPWR Y
.ends

* Black-box entry subcircuit for sky130_fd_sc_hd__nand3b_1 abstract view
.subckt sky130_fd_sc_hd__nand3b_1 A_N B C VGND VNB VPB VPWR Y
.ends

* Black-box entry subcircuit for sky130_fd_sc_hd__nor3_4 abstract view
.subckt sky130_fd_sc_hd__nor3_4 A B C VGND VNB VPB VPWR Y
.ends

.subckt fpgacell CBeast_in[0] CBeast_in[10] CBeast_in[11] CBeast_in[12] CBeast_in[13]
+ CBeast_in[1] CBeast_in[2] CBeast_in[3] CBeast_in[4] CBeast_in[5] CBeast_in[6] CBeast_in[7]
+ CBeast_in[8] CBeast_in[9] CBeast_out[0] CBeast_out[10] CBeast_out[11] CBeast_out[12]
+ CBeast_out[13] CBeast_out[1] CBeast_out[2] CBeast_out[3] CBeast_out[4] CBeast_out[5]
+ CBeast_out[6] CBeast_out[7] CBeast_out[8] CBeast_out[9] CBnorth_in[0] CBnorth_in[10]
+ CBnorth_in[11] CBnorth_in[12] CBnorth_in[13] CBnorth_in[1] CBnorth_in[2] CBnorth_in[3]
+ CBnorth_in[4] CBnorth_in[5] CBnorth_in[6] CBnorth_in[7] CBnorth_in[8] CBnorth_in[9]
+ CBnorth_out[0] CBnorth_out[10] CBnorth_out[11] CBnorth_out[12] CBnorth_out[13] CBnorth_out[1]
+ CBnorth_out[2] CBnorth_out[3] CBnorth_out[4] CBnorth_out[5] CBnorth_out[6] CBnorth_out[7]
+ CBnorth_out[8] CBnorth_out[9] SBsouth_in[0] SBsouth_in[10] SBsouth_in[11] SBsouth_in[12]
+ SBsouth_in[13] SBsouth_in[1] SBsouth_in[2] SBsouth_in[3] SBsouth_in[4] SBsouth_in[5]
+ SBsouth_in[6] SBsouth_in[7] SBsouth_in[8] SBsouth_in[9] SBsouth_out[0] SBsouth_out[10]
+ SBsouth_out[11] SBsouth_out[12] SBsouth_out[13] SBsouth_out[1] SBsouth_out[2] SBsouth_out[3]
+ SBsouth_out[4] SBsouth_out[5] SBsouth_out[6] SBsouth_out[7] SBsouth_out[8] SBsouth_out[9]
+ SBwest_in[0] SBwest_in[10] SBwest_in[11] SBwest_in[12] SBwest_in[13] SBwest_in[1]
+ SBwest_in[2] SBwest_in[3] SBwest_in[4] SBwest_in[5] SBwest_in[6] SBwest_in[7] SBwest_in[8]
+ SBwest_in[9] SBwest_out[0] SBwest_out[10] SBwest_out[11] SBwest_out[12] SBwest_out[13]
+ SBwest_out[1] SBwest_out[2] SBwest_out[3] SBwest_out[4] SBwest_out[5] SBwest_out[6]
+ SBwest_out[7] SBwest_out[8] SBwest_out[9] clk config_data_in config_data_out config_en
+ le_clk le_en le_nrst nrst vccd1 vssd1
XFILLER_54_247 vssd1 vssd1 vccd1 vccd1 sky130_fd_sc_hd__fill_1
X_2037_ _0754_ _0755_ _0758_ vssd1 vssd1 vccd1 vccd1 _0759_ sky130_fd_sc_hd__o21ai_1
X_3155_ clknet_leaf_13_clk _0287_ net222 vssd1 vssd1 vccd1 vccd1 CB_0.config_dataB\[19\]
+ sky130_fd_sc_hd__dfstp_1
X_2106_ _0393_ _0825_ vssd1 vssd1 vccd1 vccd1 _0826_ sky130_fd_sc_hd__and2_2
X_3086_ clknet_leaf_3_clk _0218_ net200 vssd1 vssd1 vccd1 vccd1 SB0.route_sel\[82\]
+ sky130_fd_sc_hd__dfstp_1
X_2939_ LE_0B.sel_clk _0071_ net61 vssd1 vssd1 vccd1 vccd1 LE_0B.dff0_out sky130_fd_sc_hd__dfrtp_1
XTAP_TAPCELL_ROW_43_415 vssd1 vccd1 sky130_fd_sc_hd__tapvpwrvgnd_1
X_1606_ net145 net147 _0329_ vssd1 vssd1 vccd1 vccd1 _0330_ sky130_fd_sc_hd__nor3_1
X_2655_ LE_1B.dff0_out _1296_ _1191_ vssd1 vssd1 vccd1 vccd1 _0115_ sky130_fd_sc_hd__a21o_1
X_2724_ SB0.route_sel\[48\] SB0.route_sel\[47\] net243 vssd1 vssd1 vccd1 vccd1 _0184_
+ sky130_fd_sc_hd__mux2_1
Xfanout127 CB_1.le_outA vssd1 vssd1 vccd1 vccd1 net127 sky130_fd_sc_hd__clkbuf_2
X_1468_ net19 vssd1 vssd1 vccd1 vccd1 _1262_ sky130_fd_sc_hd__inv_2
Xfanout138 _1314_ vssd1 vssd1 vccd1 vccd1 net138 sky130_fd_sc_hd__buf_2
XFILLER_47_29 vssd1 vssd1 vccd1 vccd1 sky130_fd_sc_hd__fill_1
Xfanout149 CB_1.config_dataA\[12\] vssd1 vssd1 vccd1 vccd1 net149 sky130_fd_sc_hd__clkbuf_2
X_1399_ SB0.route_sel\[7\] vssd1 vssd1 vccd1 vccd1 _1193_ sky130_fd_sc_hd__inv_2
X_2586_ net60 _0789_ vssd1 vssd1 vccd1 vccd1 _1188_ sky130_fd_sc_hd__and2_1
X_1537_ SB0.route_sel\[39\] SB0.route_sel\[38\] vssd1 vssd1 vccd1 vccd1 _1331_ sky130_fd_sc_hd__nand2_1
X_3069_ clknet_leaf_4_clk _0201_ net208 vssd1 vssd1 vccd1 vccd1 SB0.route_sel\[65\]
+ sky130_fd_sc_hd__dfstp_1
X_3138_ clknet_leaf_5_clk _0270_ net204 vssd1 vssd1 vccd1 vccd1 CB_0.config_dataB\[2\]
+ sky130_fd_sc_hd__dfstp_1
XFILLER_27_258 vssd1 vssd1 vccd1 vccd1 sky130_fd_sc_hd__decap_3
X_2440_ net124 _1305_ _1125_ vssd1 vssd1 vccd1 vccd1 net72 sky130_fd_sc_hd__o21a_1
X_2371_ LE_1B.config_data\[3\] _1001_ _1022_ _1088_ vssd1 vssd1 vccd1 vccd1 _1089_
+ sky130_fd_sc_hd__a211oi_1
X_2569_ LEI0.config_data\[32\] LEI0.config_data\[31\] net273 vssd1 vssd1 vccd1 vccd1
+ _0033_ sky130_fd_sc_hd__mux2_1
X_2638_ net280 net319 net249 vssd1 vssd1 vccd1 vccd1 _0098_ sky130_fd_sc_hd__mux2_1
X_2707_ SB0.route_sel\[31\] SB0.route_sel\[30\] net234 vssd1 vssd1 vccd1 vccd1 _0167_
+ sky130_fd_sc_hd__mux2_1
XFILLER_59_158 vssd1 vssd1 vccd1 vccd1 sky130_fd_sc_hd__fill_2
XTAP_TAPCELL_ROW_2_143 vssd1 vccd1 sky130_fd_sc_hd__tapvpwrvgnd_1
XFILLER_23_261 vssd1 vssd1 vccd1 vccd1 sky130_fd_sc_hd__decap_4
X_1871_ CB_0.config_dataA\[11\] _0594_ vssd1 vssd1 vccd1 vccd1 _0595_ sky130_fd_sc_hd__nor2_1
X_1940_ _1270_ CB_0.config_dataB\[7\] vssd1 vssd1 vccd1 vccd1 _0662_ sky130_fd_sc_hd__nand2_1
XTAP_TAPCELL_ROW_16_234 vssd1 vccd1 sky130_fd_sc_hd__tapvpwrvgnd_1
XFILLER_50_3 vssd1 vssd1 vccd1 vccd1 sky130_fd_sc_hd__fill_1
X_2423_ _0350_ _0820_ _0352_ vssd1 vssd1 vccd1 vccd1 _1117_ sky130_fd_sc_hd__o21a_1
X_2285_ _0793_ _0796_ _0806_ _0801_ net184 net183 vssd1 vssd1 vccd1 vccd1 _1003_ sky130_fd_sc_hd__mux4_1
X_2354_ _0793_ _0796_ net181 vssd1 vssd1 vccd1 vccd1 _1072_ sky130_fd_sc_hd__mux2_1
XFILLER_43_312 vssd1 vssd1 vccd1 vccd1 sky130_fd_sc_hd__fill_2
XTAP_TAPCELL_ROW_38_381 vssd1 vccd1 sky130_fd_sc_hd__tapvpwrvgnd_1
XFILLER_34_52 vssd1 vssd1 vccd1 vccd1 sky130_fd_sc_hd__fill_1
XTAP_TAPCELL_ROW_13_215 vssd1 vccd1 sky130_fd_sc_hd__tapvpwrvgnd_1
XTAP_TAPCELL_ROW_21_270 vssd1 vccd1 sky130_fd_sc_hd__tapvpwrvgnd_1
X_2070_ LE_0B.config_data\[16\] _0789_ _0790_ _0652_ vssd1 vssd1 vccd1 vccd1 CB_0.le_outB
+ sky130_fd_sc_hd__o211a_1
XFILLER_46_172 vssd1 vssd1 vccd1 vccd1 sky130_fd_sc_hd__fill_2
X_2972_ clknet_leaf_23_clk _0104_ net215 vssd1 vssd1 vccd1 vccd1 LE_1A.config_data\[9\]
+ sky130_fd_sc_hd__dfrtp_1
X_1854_ net174 _0348_ _0577_ CB_0.config_dataA\[11\] _1265_ vssd1 vssd1 vccd1 vccd1
+ _0578_ sky130_fd_sc_hd__o2111a_1
X_1923_ LE_0A.config_data\[9\] LE_0A.config_data\[8\] _0574_ vssd1 vssd1 vccd1 vccd1
+ _0647_ sky130_fd_sc_hd__mux2_1
X_1785_ _1249_ _0507_ _0508_ SB0.route_sel\[91\] vssd1 vssd1 vccd1 vccd1 _0509_ sky130_fd_sc_hd__or4b_1
X_2406_ _0492_ _1108_ _0494_ vssd1 vssd1 vccd1 vccd1 net89 sky130_fd_sc_hd__a21o_1
X_2199_ net150 _0817_ vssd1 vssd1 vccd1 vccd1 _0919_ sky130_fd_sc_hd__nor2_1
XFILLER_44_109 vssd1 vssd1 vccd1 vccd1 sky130_fd_sc_hd__decap_8
X_2268_ LEI0.config_data\[11\] _0985_ vssd1 vssd1 vccd1 vccd1 _0986_ sky130_fd_sc_hd__nand2b_2
X_2337_ _1023_ _1054_ _1053_ _1025_ vssd1 vssd1 vccd1 vccd1 _1055_ sky130_fd_sc_hd__o211ai_1
XTAP_TAPCELL_ROW_27_307 vssd1 vccd1 sky130_fd_sc_hd__tapvpwrvgnd_1
XTAP_TAPCELL_ROW_35_362 vssd1 vccd1 sky130_fd_sc_hd__tapvpwrvgnd_1
Xhold74 LEI0.config_data\[13\] vssd1 vssd1 vccd1 vccd1 net349 sky130_fd_sc_hd__dlygate4sd3_1
Xhold30 LE_0A.config_data\[13\] vssd1 vssd1 vccd1 vccd1 net305 sky130_fd_sc_hd__dlygate4sd3_1
Xhold52 LE_0B.config_data\[8\] vssd1 vssd1 vccd1 vccd1 net327 sky130_fd_sc_hd__dlygate4sd3_1
Xhold41 LEI0.config_data\[8\] vssd1 vssd1 vccd1 vccd1 net316 sky130_fd_sc_hd__dlygate4sd3_1
Xhold63 LE_1B.config_data\[6\] vssd1 vssd1 vccd1 vccd1 net338 sky130_fd_sc_hd__dlygate4sd3_1
Xhold96 LEI0.config_data\[15\] vssd1 vssd1 vccd1 vccd1 net371 sky130_fd_sc_hd__dlygate4sd3_1
XFILLER_28_172 vssd1 vssd1 vccd1 vccd1 sky130_fd_sc_hd__decap_3
Xhold85 LE_1B.config_data\[9\] vssd1 vssd1 vccd1 vccd1 net360 sky130_fd_sc_hd__dlygate4sd3_1
XFILLER_61_83 vssd1 vssd1 vccd1 vccd1 sky130_fd_sc_hd__fill_1
XTAP_TAPCELL_ROW_41_398 vssd1 vccd1 sky130_fd_sc_hd__tapvpwrvgnd_1
XFILLER_6_23 vssd1 vssd1 vccd1 vccd1 sky130_fd_sc_hd__decap_4
XANTENNA_5 LE_1B.reset_val vssd1 vssd1 vccd1 vccd1 sky130_fd_sc_hd__diode_2
X_1570_ SB0.route_sel\[52\] _1225_ SB0.route_sel\[55\] _1227_ _1363_ vssd1 vssd1 vccd1
+ vccd1 _1364_ sky130_fd_sc_hd__a221o_1
X_2053_ LEI0.config_data\[41\] _0762_ _0773_ _0774_ _0760_ vssd1 vssd1 vccd1 vccd1
+ _0775_ sky130_fd_sc_hd__o221a_2
XTAP_TAPCELL_ROW_49_454 vssd1 vccd1 sky130_fd_sc_hd__tapvpwrvgnd_1
X_2122_ SB0.route_sel\[79\] _1241_ SB0.route_sel\[72\] _1244_ _0841_ vssd1 vssd1 vccd1
+ vccd1 _0842_ sky130_fd_sc_hd__o221a_1
X_3171_ clknet_leaf_21_clk _0303_ net219 vssd1 vssd1 vccd1 vccd1 CB_1.config_dataA\[15\]
+ sky130_fd_sc_hd__dfstp_2
XTAP_TAPCELL_ROW_32_343 vssd1 vccd1 sky130_fd_sc_hd__tapvpwrvgnd_1
X_2955_ clknet_leaf_1_clk _0087_ net193 vssd1 vssd1 vccd1 vccd1 LE_0B.config_data\[14\]
+ sky130_fd_sc_hd__dfrtp_1
X_2886_ clknet_leaf_15_clk net345 net224 vssd1 vssd1 vccd1 vccd1 LEI0.config_data\[17\]
+ sky130_fd_sc_hd__dfrtp_1
X_1906_ _0451_ _0611_ _0614_ CB_0.config_dataA\[15\] vssd1 vssd1 vccd1 vccd1 _0630_
+ sky130_fd_sc_hd__a211o_1
X_1837_ _1202_ _0554_ vssd1 vssd1 vccd1 vccd1 _0561_ sky130_fd_sc_hd__nor2_1
X_1768_ _1334_ _0468_ _0491_ net130 vssd1 vssd1 vccd1 vccd1 _0492_ sky130_fd_sc_hd__o2bb2a_1
X_1699_ SB0.route_sel\[28\] SB0.route_sel\[29\] net50 _0422_ _0421_ vssd1 vssd1 vccd1
+ vccd1 _0423_ sky130_fd_sc_hd__a41o_1
XFILLER_57_278 vssd1 vssd1 vccd1 vccd1 sky130_fd_sc_hd__fill_2
XFILLER_15_54 vssd1 vssd1 vccd1 vccd1 sky130_fd_sc_hd__fill_2
Xoutput64 net64 vssd1 vssd1 vccd1 vccd1 CBeast_out[10] sky130_fd_sc_hd__buf_2
Xoutput75 net75 vssd1 vssd1 vccd1 vccd1 CBeast_out[8] sky130_fd_sc_hd__buf_2
Xoutput86 net86 vssd1 vssd1 vccd1 vccd1 CBnorth_out[5] sky130_fd_sc_hd__buf_2
XFILLER_56_83 vssd1 vssd1 vccd1 vccd1 sky130_fd_sc_hd__fill_1
Xoutput97 net97 vssd1 vssd1 vccd1 vccd1 SBsouth_out[2] sky130_fd_sc_hd__buf_2
XTAP_TAPCELL_ROW_46_435 vssd1 vccd1 sky130_fd_sc_hd__tapvpwrvgnd_1
XFILLER_16_164 vssd1 vssd1 vccd1 vccd1 sky130_fd_sc_hd__decap_8
XFILLER_16_197 vccd1 vssd1 vccd1 vssd1 sky130_ef_sc_hd__decap_12
X_1622_ SB0.route_sel\[98\] SB0.route_sel\[99\] _1256_ SB0.route_sel\[102\] vssd1
+ vssd1 vccd1 vccd1 _0346_ sky130_fd_sc_hd__o22a_1
XFILLER_8_363 vssd1 vssd1 vccd1 vccd1 sky130_fd_sc_hd__fill_1
X_2740_ SB0.route_sel\[64\] SB0.route_sel\[63\] net239 vssd1 vssd1 vccd1 vccd1 _0200_
+ sky130_fd_sc_hd__mux2_1
X_2671_ net180 CB_1.config_dataB\[14\] net254 vssd1 vssd1 vccd1 vccd1 _0131_ sky130_fd_sc_hd__mux2_1
X_1553_ net139 _1346_ net11 vssd1 vssd1 vccd1 vccd1 _1347_ sky130_fd_sc_hd__o21ai_1
X_1484_ LE_1A.config_data\[6\] vssd1 vssd1 vccd1 vccd1 _1278_ sky130_fd_sc_hd__inv_2
X_2036_ CB_0.config_dataB\[15\] _0753_ _0756_ _0757_ vssd1 vssd1 vccd1 vccd1 _0758_
+ sky130_fd_sc_hd__o22a_1
XFILLER_54_259 vssd1 vssd1 vccd1 vccd1 sky130_fd_sc_hd__fill_1
X_3154_ clknet_leaf_12_clk _0286_ net221 vssd1 vssd1 vccd1 vccd1 CB_0.config_dataB\[18\]
+ sky130_fd_sc_hd__dfstp_1
XFILLER_39_278 vssd1 vssd1 vccd1 vccd1 sky130_fd_sc_hd__fill_2
X_2105_ _1199_ SB0.route_sel\[14\] SB0.route_sel\[9\] _1201_ _0824_ vssd1 vssd1 vccd1
+ vccd1 _0825_ sky130_fd_sc_hd__a221o_1
X_3085_ clknet_leaf_3_clk _0217_ net200 vssd1 vssd1 vccd1 vccd1 SB0.route_sel\[81\]
+ sky130_fd_sc_hd__dfstp_1
X_2938_ clknet_leaf_30_clk _0070_ net190 vssd1 vssd1 vccd1 vccd1 LE_0A.reset_mode
+ sky130_fd_sc_hd__dfrtp_1
XFILLER_22_167 vssd1 vssd1 vccd1 vccd1 sky130_fd_sc_hd__fill_1
X_2869_ clknet_leaf_25_clk _0001_ net211 vssd1 vssd1 vccd1 vccd1 LEI0.config_data\[0\]
+ sky130_fd_sc_hd__dfrtp_1
XTAP_TAPCELL_ROW_8_182 vssd1 vccd1 sky130_fd_sc_hd__tapvpwrvgnd_1
X_2723_ SB0.route_sel\[47\] SB0.route_sel\[46\] net242 vssd1 vssd1 vccd1 vccd1 _0183_
+ sky130_fd_sc_hd__mux2_1
X_1605_ net141 net143 vssd1 vssd1 vccd1 vccd1 _0329_ sky130_fd_sc_hd__nand2_1
X_2654_ LE_1A.reset_mode net387 net247 vssd1 vssd1 vccd1 vccd1 _0114_ sky130_fd_sc_hd__mux2_1
X_2585_ LE_0A.dff0_out _1296_ _1187_ vssd1 vssd1 vccd1 vccd1 _0049_ sky130_fd_sc_hd__a21bo_1
X_1536_ SB0.route_sel\[36\] SB0.route_sel\[37\] net37 vssd1 vssd1 vccd1 vccd1 _1330_
+ sky130_fd_sc_hd__a21boi_1
X_3137_ clknet_leaf_5_clk _0269_ net204 vssd1 vssd1 vccd1 vccd1 CB_0.config_dataB\[1\]
+ sky130_fd_sc_hd__dfstp_1
X_1398_ SB0.route_sel\[5\] vssd1 vssd1 vccd1 vccd1 _1192_ sky130_fd_sc_hd__inv_2
Xfanout139 _1302_ vssd1 vssd1 vccd1 vccd1 net139 sky130_fd_sc_hd__buf_2
X_1467_ SB0.route_sel\[104\] vssd1 vssd1 vccd1 vccd1 _1261_ sky130_fd_sc_hd__inv_2
X_2019_ _0537_ _0729_ _0737_ _0740_ vssd1 vssd1 vccd1 vccd1 _0741_ sky130_fd_sc_hd__a22o_1
X_3068_ clknet_leaf_28_clk _0200_ net199 vssd1 vssd1 vccd1 vccd1 SB0.route_sel\[64\]
+ sky130_fd_sc_hd__dfstp_2
XTAP_TAPCELL_ROW_5_163 vssd1 vccd1 sky130_fd_sc_hd__tapvpwrvgnd_1