* NGSPICE file created from team_00.ext - technology: sky130A

* Black-box entry subcircuit for sky130_fd_sc_hd__diode_2 abstract view
.subckt sky130_fd_sc_hd__diode_2 DIODE VGND VNB VPB VPWR
.ends

* Black-box entry subcircuit for sky130_fd_sc_hd__fill_1 abstract view
.subckt sky130_fd_sc_hd__fill_1 VGND VNB VPB VPWR
.ends

* Black-box entry subcircuit for sky130_fd_sc_hd__and3_1 abstract view
.subckt sky130_fd_sc_hd__and3_1 A B C VGND VNB VPB VPWR X
.ends

* Black-box entry subcircuit for sky130_fd_sc_hd__a211o_1 abstract view
.subckt sky130_fd_sc_hd__a211o_1 A1 A2 B1 C1 VGND VNB VPB VPWR X
.ends

* Black-box entry subcircuit for sky130_fd_sc_hd__dlymetal6s2s_1 abstract view
.subckt sky130_fd_sc_hd__dlymetal6s2s_1 A VGND VNB VPB VPWR X
.ends

* Black-box entry subcircuit for sky130_fd_sc_hd__clkbuf_2 abstract view
.subckt sky130_fd_sc_hd__clkbuf_2 A VGND VNB VPB VPWR X
.ends

* Black-box entry subcircuit for sky130_fd_sc_hd__conb_1 abstract view
.subckt sky130_fd_sc_hd__conb_1 VGND VNB VPB VPWR HI LO
.ends

* Black-box entry subcircuit for sky130_fd_sc_hd__a21o_1 abstract view
.subckt sky130_fd_sc_hd__a21o_1 A1 A2 B1 VGND VNB VPB VPWR X
.ends

* Black-box entry subcircuit for sky130_fd_sc_hd__and2_1 abstract view
.subckt sky130_fd_sc_hd__and2_1 A B VGND VNB VPB VPWR X
.ends

* Black-box entry subcircuit for sky130_fd_sc_hd__xnor2_1 abstract view
.subckt sky130_fd_sc_hd__xnor2_1 A B VGND VNB VPB VPWR Y
.ends

* Black-box entry subcircuit for sky130_fd_sc_hd__nand2_1 abstract view
.subckt sky130_fd_sc_hd__nand2_1 A B VGND VNB VPB VPWR Y
.ends

* Black-box entry subcircuit for sky130_fd_sc_hd__nand2b_1 abstract view
.subckt sky130_fd_sc_hd__nand2b_1 A_N B VGND VNB VPB VPWR Y
.ends

* Black-box entry subcircuit for sky130_fd_sc_hd__decap_4 abstract view
.subckt sky130_fd_sc_hd__decap_4 VGND VNB VPB VPWR
.ends

* Black-box entry subcircuit for sky130_fd_sc_hd__o21bai_1 abstract view
.subckt sky130_fd_sc_hd__o21bai_1 A1 A2 B1_N VGND VNB VPB VPWR Y
.ends

* Black-box entry subcircuit for sky130_fd_sc_hd__decap_3 abstract view
.subckt sky130_fd_sc_hd__decap_3 VGND VNB VPB VPWR
.ends

* Black-box entry subcircuit for sky130_fd_sc_hd__xor2_2 abstract view
.subckt sky130_fd_sc_hd__xor2_2 A B VGND VNB VPB VPWR X
.ends

* Black-box entry subcircuit for sky130_fd_sc_hd__xnor2_2 abstract view
.subckt sky130_fd_sc_hd__xnor2_2 A B VGND VNB VPB VPWR Y
.ends

* Black-box entry subcircuit for sky130_fd_sc_hd__dfrtp_1 abstract view
.subckt sky130_fd_sc_hd__dfrtp_1 CLK D RESET_B VGND VNB VPB VPWR Q
.ends

* Black-box entry subcircuit for sky130_fd_sc_hd__xor2_1 abstract view
.subckt sky130_fd_sc_hd__xor2_1 A B VGND VNB VPB VPWR X
.ends

* Black-box entry subcircuit for sky130_fd_sc_hd__o221a_1 abstract view
.subckt sky130_fd_sc_hd__o221a_1 A1 A2 B1 B2 C1 VGND VNB VPB VPWR X
.ends

* Black-box entry subcircuit for sky130_fd_sc_hd__a21oi_1 abstract view
.subckt sky130_fd_sc_hd__a21oi_1 A1 A2 B1 VGND VNB VPB VPWR Y
.ends

* Black-box entry subcircuit for sky130_fd_sc_hd__or2_2 abstract view
.subckt sky130_fd_sc_hd__or2_2 A B VGND VNB VPB VPWR X
.ends

* Black-box entry subcircuit for sky130_fd_sc_hd__xnor2_4 abstract view
.subckt sky130_fd_sc_hd__xnor2_4 A B VGND VNB VPB VPWR Y
.ends

* Black-box entry subcircuit for sky130_fd_sc_hd__nor3_1 abstract view
.subckt sky130_fd_sc_hd__nor3_1 A B C VGND VNB VPB VPWR Y
.ends

* Black-box entry subcircuit for sky130_fd_sc_hd__tapvpwrvgnd_1 abstract view
.subckt sky130_fd_sc_hd__tapvpwrvgnd_1 VGND VPWR
.ends

* Black-box entry subcircuit for sky130_fd_sc_hd__o211a_1 abstract view
.subckt sky130_fd_sc_hd__o211a_1 A1 A2 B1 C1 VGND VNB VPB VPWR X
.ends

* Black-box entry subcircuit for sky130_fd_sc_hd__nor2_1 abstract view
.subckt sky130_fd_sc_hd__nor2_1 A B VGND VNB VPB VPWR Y
.ends

* Black-box entry subcircuit for sky130_fd_sc_hd__buf_2 abstract view
.subckt sky130_fd_sc_hd__buf_2 A VGND VNB VPB VPWR X
.ends

* Black-box entry subcircuit for sky130_fd_sc_hd__decap_8 abstract view
.subckt sky130_fd_sc_hd__decap_8 VGND VNB VPB VPWR
.ends

* Black-box entry subcircuit for sky130_fd_sc_hd__o21ai_1 abstract view
.subckt sky130_fd_sc_hd__o21ai_1 A1 A2 B1 VGND VNB VPB VPWR Y
.ends

* Black-box entry subcircuit for sky130_fd_sc_hd__inv_2 abstract view
.subckt sky130_fd_sc_hd__inv_2 A VGND VNB VPB VPWR Y
.ends

* Black-box entry subcircuit for sky130_fd_sc_hd__a21bo_1 abstract view
.subckt sky130_fd_sc_hd__a21bo_1 A1 A2 B1_N VGND VNB VPB VPWR X
.ends

* Black-box entry subcircuit for sky130_fd_sc_hd__dfrtp_2 abstract view
.subckt sky130_fd_sc_hd__dfrtp_2 CLK D RESET_B VGND VNB VPB VPWR Q
.ends

* Black-box entry subcircuit for sky130_fd_sc_hd__a31o_1 abstract view
.subckt sky130_fd_sc_hd__a31o_1 A1 A2 A3 B1 VGND VNB VPB VPWR X
.ends

* Black-box entry subcircuit for sky130_fd_sc_hd__fill_2 abstract view
.subckt sky130_fd_sc_hd__fill_2 VGND VNB VPB VPWR
.ends

* Black-box entry subcircuit for sky130_fd_sc_hd__or4_1 abstract view
.subckt sky130_fd_sc_hd__or4_1 A B C D VGND VNB VPB VPWR X
.ends

* Black-box entry subcircuit for sky130_fd_sc_hd__and4_1 abstract view
.subckt sky130_fd_sc_hd__and4_1 A B C D VGND VNB VPB VPWR X
.ends

* Black-box entry subcircuit for sky130_fd_sc_hd__or3_1 abstract view
.subckt sky130_fd_sc_hd__or3_1 A B C VGND VNB VPB VPWR X
.ends

* Black-box entry subcircuit for sky130_fd_sc_hd__or2_1 abstract view
.subckt sky130_fd_sc_hd__or2_1 A B VGND VNB VPB VPWR X
.ends

* Black-box entry subcircuit for sky130_ef_sc_hd__decap_12 abstract view
.subckt sky130_ef_sc_hd__decap_12 VPWR VGND VPB VNB
.ends

* Black-box entry subcircuit for sky130_fd_sc_hd__decap_6 abstract view
.subckt sky130_fd_sc_hd__decap_6 VGND VNB VPB VPWR
.ends

* Black-box entry subcircuit for sky130_fd_sc_hd__and2b_1 abstract view
.subckt sky130_fd_sc_hd__and2b_1 A_N B VGND VNB VPB VPWR X
.ends

* Black-box entry subcircuit for sky130_fd_sc_hd__nand2_2 abstract view
.subckt sky130_fd_sc_hd__nand2_2 A B VGND VNB VPB VPWR Y
.ends

* Black-box entry subcircuit for sky130_fd_sc_hd__a221o_1 abstract view
.subckt sky130_fd_sc_hd__a221o_1 A1 A2 B1 B2 C1 VGND VNB VPB VPWR X
.ends

* Black-box entry subcircuit for sky130_fd_sc_hd__clkbuf_4 abstract view
.subckt sky130_fd_sc_hd__clkbuf_4 A VGND VNB VPB VPWR X
.ends

* Black-box entry subcircuit for sky130_fd_sc_hd__or4b_1 abstract view
.subckt sky130_fd_sc_hd__or4b_1 A B C D_N VGND VNB VPB VPWR X
.ends

* Black-box entry subcircuit for sky130_fd_sc_hd__clkbuf_1 abstract view
.subckt sky130_fd_sc_hd__clkbuf_1 A VGND VNB VPB VPWR X
.ends

* Black-box entry subcircuit for sky130_fd_sc_hd__o31a_1 abstract view
.subckt sky130_fd_sc_hd__o31a_1 A1 A2 A3 B1 VGND VNB VPB VPWR X
.ends

* Black-box entry subcircuit for sky130_fd_sc_hd__a2bb2o_1 abstract view
.subckt sky130_fd_sc_hd__a2bb2o_1 A1_N A2_N B1 B2 VGND VNB VPB VPWR X
.ends

* Black-box entry subcircuit for sky130_fd_sc_hd__o22ai_1 abstract view
.subckt sky130_fd_sc_hd__o22ai_1 A1 A2 B1 B2 VGND VNB VPB VPWR Y
.ends

* Black-box entry subcircuit for sky130_fd_sc_hd__or3b_1 abstract view
.subckt sky130_fd_sc_hd__or3b_1 A B C_N VGND VNB VPB VPWR X
.ends

* Black-box entry subcircuit for sky130_fd_sc_hd__nor2_2 abstract view
.subckt sky130_fd_sc_hd__nor2_2 A B VGND VNB VPB VPWR Y
.ends

* Black-box entry subcircuit for sky130_fd_sc_hd__a21boi_4 abstract view
.subckt sky130_fd_sc_hd__a21boi_4 A1 A2 B1_N VGND VNB VPB VPWR Y
.ends

* Black-box entry subcircuit for sky130_fd_sc_hd__o31ai_2 abstract view
.subckt sky130_fd_sc_hd__o31ai_2 A1 A2 A3 B1 VGND VNB VPB VPWR Y
.ends

* Black-box entry subcircuit for sky130_fd_sc_hd__o31ai_1 abstract view
.subckt sky130_fd_sc_hd__o31ai_1 A1 A2 A3 B1 VGND VNB VPB VPWR Y
.ends

* Black-box entry subcircuit for sky130_fd_sc_hd__bufinv_16 abstract view
.subckt sky130_fd_sc_hd__bufinv_16 A VGND VNB VPB VPWR Y
.ends

* Black-box entry subcircuit for sky130_fd_sc_hd__o211ai_1 abstract view
.subckt sky130_fd_sc_hd__o211ai_1 A1 A2 B1 C1 VGND VNB VPB VPWR Y
.ends

* Black-box entry subcircuit for sky130_fd_sc_hd__xor2_4 abstract view
.subckt sky130_fd_sc_hd__xor2_4 A B VGND VNB VPB VPWR X
.ends

* Black-box entry subcircuit for sky130_fd_sc_hd__or3b_4 abstract view
.subckt sky130_fd_sc_hd__or3b_4 A B C_N VGND VNB VPB VPWR X
.ends

* Black-box entry subcircuit for sky130_fd_sc_hd__clkinv_2 abstract view
.subckt sky130_fd_sc_hd__clkinv_2 A VGND VNB VPB VPWR Y
.ends

* Black-box entry subcircuit for sky130_fd_sc_hd__and3b_1 abstract view
.subckt sky130_fd_sc_hd__and3b_1 A_N B C VGND VNB VPB VPWR X
.ends

* Black-box entry subcircuit for sky130_fd_sc_hd__and4bb_1 abstract view
.subckt sky130_fd_sc_hd__and4bb_1 A_N B_N C D VGND VNB VPB VPWR X
.ends

* Black-box entry subcircuit for sky130_fd_sc_hd__o21ba_1 abstract view
.subckt sky130_fd_sc_hd__o21ba_1 A1 A2 B1_N VGND VNB VPB VPWR X
.ends

* Black-box entry subcircuit for sky130_fd_sc_hd__clkinvlp_4 abstract view
.subckt sky130_fd_sc_hd__clkinvlp_4 A VGND VNB VPB VPWR Y
.ends

* Black-box entry subcircuit for sky130_fd_sc_hd__o22a_1 abstract view
.subckt sky130_fd_sc_hd__o22a_1 A1 A2 B1 B2 VGND VNB VPB VPWR X
.ends

* Black-box entry subcircuit for sky130_fd_sc_hd__nand3_1 abstract view
.subckt sky130_fd_sc_hd__nand3_1 A B C VGND VNB VPB VPWR Y
.ends

* Black-box entry subcircuit for sky130_fd_sc_hd__nor3b_1 abstract view
.subckt sky130_fd_sc_hd__nor3b_1 A B C_N VGND VNB VPB VPWR Y
.ends

* Black-box entry subcircuit for sky130_fd_sc_hd__o2111ai_1 abstract view
.subckt sky130_fd_sc_hd__o2111ai_1 A1 A2 B1 C1 D1 VGND VNB VPB VPWR Y
.ends

* Black-box entry subcircuit for sky130_fd_sc_hd__o31ai_4 abstract view
.subckt sky130_fd_sc_hd__o31ai_4 A1 A2 A3 B1 VGND VNB VPB VPWR Y
.ends

* Black-box entry subcircuit for sky130_fd_sc_hd__clkbuf_16 abstract view
.subckt sky130_fd_sc_hd__clkbuf_16 A VGND VNB VPB VPWR X
.ends

* Black-box entry subcircuit for sky130_fd_sc_hd__nand3b_1 abstract view
.subckt sky130_fd_sc_hd__nand3b_1 A_N B C VGND VNB VPB VPWR Y
.ends

* Black-box entry subcircuit for sky130_fd_sc_hd__a2111o_1 abstract view
.subckt sky130_fd_sc_hd__a2111o_1 A1 A2 B1 C1 D1 VGND VNB VPB VPWR X
.ends

* Black-box entry subcircuit for sky130_fd_sc_hd__a21oi_2 abstract view
.subckt sky130_fd_sc_hd__a21oi_2 A1 A2 B1 VGND VNB VPB VPWR Y
.ends

* Black-box entry subcircuit for sky130_fd_sc_hd__o221ai_4 abstract view
.subckt sky130_fd_sc_hd__o221ai_4 A1 A2 B1 B2 C1 VGND VNB VPB VPWR Y
.ends

* Black-box entry subcircuit for sky130_fd_sc_hd__a211oi_1 abstract view
.subckt sky130_fd_sc_hd__a211oi_1 A1 A2 B1 C1 VGND VNB VPB VPWR Y
.ends

* Black-box entry subcircuit for sky130_fd_sc_hd__dfrtp_4 abstract view
.subckt sky130_fd_sc_hd__dfrtp_4 CLK D RESET_B VGND VNB VPB VPWR Q
.ends

* Black-box entry subcircuit for sky130_fd_sc_hd__a21oi_4 abstract view
.subckt sky130_fd_sc_hd__a21oi_4 A1 A2 B1 VGND VNB VPB VPWR Y
.ends

* Black-box entry subcircuit for sky130_fd_sc_hd__a21boi_2 abstract view
.subckt sky130_fd_sc_hd__a21boi_2 A1 A2 B1_N VGND VNB VPB VPWR Y
.ends

* Black-box entry subcircuit for sky130_fd_sc_hd__o21a_1 abstract view
.subckt sky130_fd_sc_hd__o21a_1 A1 A2 B1 VGND VNB VPB VPWR X
.ends

* Black-box entry subcircuit for sky130_fd_sc_hd__a22oi_2 abstract view
.subckt sky130_fd_sc_hd__a22oi_2 A1 A2 B1 B2 VGND VNB VPB VPWR Y
.ends

* Black-box entry subcircuit for sky130_fd_sc_hd__o311a_1 abstract view
.subckt sky130_fd_sc_hd__o311a_1 A1 A2 A3 B1 C1 VGND VNB VPB VPWR X
.ends

* Black-box entry subcircuit for sky130_fd_sc_hd__o221ai_2 abstract view
.subckt sky130_fd_sc_hd__o221ai_2 A1 A2 B1 B2 C1 VGND VNB VPB VPWR Y
.ends

* Black-box entry subcircuit for sky130_fd_sc_hd__and4b_1 abstract view
.subckt sky130_fd_sc_hd__and4b_1 A_N B C D VGND VNB VPB VPWR X
.ends

* Black-box entry subcircuit for sky130_fd_sc_hd__a22o_1 abstract view
.subckt sky130_fd_sc_hd__a22o_1 A1 A2 B1 B2 VGND VNB VPB VPWR X
.ends

* Black-box entry subcircuit for sky130_fd_sc_hd__or4bb_1 abstract view
.subckt sky130_fd_sc_hd__or4bb_1 A B C_N D_N VGND VNB VPB VPWR X
.ends

* Black-box entry subcircuit for sky130_fd_sc_hd__buf_1 abstract view
.subckt sky130_fd_sc_hd__buf_1 A VGND VNB VPB VPWR X
.ends

* Black-box entry subcircuit for sky130_fd_sc_hd__a31o_2 abstract view
.subckt sky130_fd_sc_hd__a31o_2 A1 A2 A3 B1 VGND VNB VPB VPWR X
.ends

* Black-box entry subcircuit for sky130_fd_sc_hd__buf_4 abstract view
.subckt sky130_fd_sc_hd__buf_4 A VGND VNB VPB VPWR X
.ends

* Black-box entry subcircuit for sky130_fd_sc_hd__nand4_1 abstract view
.subckt sky130_fd_sc_hd__nand4_1 A B C D VGND VNB VPB VPWR Y
.ends

* Black-box entry subcircuit for sky130_fd_sc_hd__a41o_2 abstract view
.subckt sky130_fd_sc_hd__a41o_2 A1 A2 A3 A4 B1 VGND VNB VPB VPWR X
.ends

* Black-box entry subcircuit for sky130_fd_sc_hd__nand4b_1 abstract view
.subckt sky130_fd_sc_hd__nand4b_1 A_N B C D VGND VNB VPB VPWR Y
.ends

* Black-box entry subcircuit for sky130_fd_sc_hd__or3_2 abstract view
.subckt sky130_fd_sc_hd__or3_2 A B C VGND VNB VPB VPWR X
.ends

* Black-box entry subcircuit for sky130_fd_sc_hd__a41o_1 abstract view
.subckt sky130_fd_sc_hd__a41o_1 A1 A2 A3 A4 B1 VGND VNB VPB VPWR X
.ends

* Black-box entry subcircuit for sky130_fd_sc_hd__nand4_2 abstract view
.subckt sky130_fd_sc_hd__nand4_2 A B C D VGND VNB VPB VPWR Y
.ends

* Black-box entry subcircuit for sky130_fd_sc_hd__a221oi_4 abstract view
.subckt sky130_fd_sc_hd__a221oi_4 A1 A2 B1 B2 C1 VGND VNB VPB VPWR Y
.ends

* Black-box entry subcircuit for sky130_fd_sc_hd__a311o_1 abstract view
.subckt sky130_fd_sc_hd__a311o_1 A1 A2 A3 B1 C1 VGND VNB VPB VPWR X
.ends

* Black-box entry subcircuit for sky130_fd_sc_hd__a21bo_2 abstract view
.subckt sky130_fd_sc_hd__a21bo_2 A1 A2 B1_N VGND VNB VPB VPWR X
.ends

* Black-box entry subcircuit for sky130_fd_sc_hd__o32a_1 abstract view
.subckt sky130_fd_sc_hd__o32a_1 A1 A2 A3 B1 B2 VGND VNB VPB VPWR X
.ends

* Black-box entry subcircuit for sky130_fd_sc_hd__or4_2 abstract view
.subckt sky130_fd_sc_hd__or4_2 A B C D VGND VNB VPB VPWR X
.ends

* Black-box entry subcircuit for sky130_fd_sc_hd__nand2b_2 abstract view
.subckt sky130_fd_sc_hd__nand2b_2 A_N B VGND VNB VPB VPWR Y
.ends

.subckt team_00 clk done en gpio_in[0] gpio_in[10] gpio_in[11] gpio_in[12] gpio_in[13]
+ gpio_in[14] gpio_in[15] gpio_in[16] gpio_in[17] gpio_in[18] gpio_in[19] gpio_in[1]
+ gpio_in[20] gpio_in[21] gpio_in[22] gpio_in[23] gpio_in[24] gpio_in[25] gpio_in[26]
+ gpio_in[27] gpio_in[28] gpio_in[29] gpio_in[2] gpio_in[30] gpio_in[31] gpio_in[32]
+ gpio_in[33] gpio_in[3] gpio_in[4] gpio_in[5] gpio_in[6] gpio_in[7] gpio_in[8] gpio_in[9]
+ gpio_oeb[0] gpio_oeb[10] gpio_oeb[11] gpio_oeb[12] gpio_oeb[13] gpio_oeb[14] gpio_oeb[15]
+ gpio_oeb[16] gpio_oeb[17] gpio_oeb[18] gpio_oeb[19] gpio_oeb[1] gpio_oeb[20] gpio_oeb[21]
+ gpio_oeb[22] gpio_oeb[23] gpio_oeb[24] gpio_oeb[25] gpio_oeb[26] gpio_oeb[27] gpio_oeb[28]
+ gpio_oeb[29] gpio_oeb[2] gpio_oeb[30] gpio_oeb[31] gpio_oeb[32] gpio_oeb[33] gpio_oeb[3]
+ gpio_oeb[4] gpio_oeb[5] gpio_oeb[6] gpio_oeb[7] gpio_oeb[8] gpio_oeb[9] gpio_out[0]
+ gpio_out[10] gpio_out[11] gpio_out[12] gpio_out[13] gpio_out[14] gpio_out[15] gpio_out[16]
+ gpio_out[17] gpio_out[18] gpio_out[19] gpio_out[1] gpio_out[20] gpio_out[21] gpio_out[22]
+ gpio_out[23] gpio_out[24] gpio_out[25] gpio_out[26] gpio_out[27] gpio_out[28] gpio_out[29]
+ gpio_out[2] gpio_out[30] gpio_out[31] gpio_out[32] gpio_out[33] gpio_out[3] gpio_out[4]
+ gpio_out[5] gpio_out[6] gpio_out[7] gpio_out[8] gpio_out[9] la_data_in[0] la_data_in[10]
+ la_data_in[11] la_data_in[12] la_data_in[13] la_data_in[14] la_data_in[15] la_data_in[16]
+ la_data_in[17] la_data_in[18] la_data_in[19] la_data_in[1] la_data_in[20] la_data_in[21]
+ la_data_in[22] la_data_in[23] la_data_in[24] la_data_in[25] la_data_in[26] la_data_in[27]
+ la_data_in[28] la_data_in[29] la_data_in[2] la_data_in[30] la_data_in[31] la_data_in[3]
+ la_data_in[4] la_data_in[5] la_data_in[6] la_data_in[7] la_data_in[8] la_data_in[9]
+ la_data_out[0] la_data_out[10] la_data_out[11] la_data_out[12] la_data_out[13] la_data_out[14]
+ la_data_out[15] la_data_out[16] la_data_out[17] la_data_out[18] la_data_out[19]
+ la_data_out[1] la_data_out[20] la_data_out[21] la_data_out[22] la_data_out[23] la_data_out[24]
+ la_data_out[25] la_data_out[26] la_data_out[27] la_data_out[28] la_data_out[29]
+ la_data_out[2] la_data_out[30] la_data_out[31] la_data_out[3] la_data_out[4] la_data_out[5]
+ la_data_out[6] la_data_out[7] la_data_out[8] la_data_out[9] la_oenb[0] la_oenb[10]
+ la_oenb[11] la_oenb[12] la_oenb[13] la_oenb[14] la_oenb[15] la_oenb[16] la_oenb[17]
+ la_oenb[18] la_oenb[19] la_oenb[1] la_oenb[20] la_oenb[21] la_oenb[22] la_oenb[23]
+ la_oenb[24] la_oenb[25] la_oenb[26] la_oenb[27] la_oenb[28] la_oenb[29] la_oenb[2]
+ la_oenb[30] la_oenb[31] la_oenb[3] la_oenb[4] la_oenb[5] la_oenb[6] la_oenb[7] la_oenb[8]
+ la_oenb[9] nrst prescaler[0] prescaler[10] prescaler[11] prescaler[12] prescaler[13]
+ prescaler[1] prescaler[2] prescaler[3] prescaler[4] prescaler[5] prescaler[6] prescaler[7]
+ prescaler[8] prescaler[9] vccd1 vssd1
XANTENNA__1307__Q clk_divider.count_out\[23\] vssd1 vssd1 vccd1 vccd1 sky130_fd_sc_hd__diode_2
XFILLER_93_36 vssd1 vssd1 vccd1 vccd1 sky130_fd_sc_hd__fill_1
X_1270_ _0581_ _0591_ _0604_ vssd1 vssd1 vccd1 vccd1 net69 sky130_fd_sc_hd__and3_1
XANTENNA__1133__B1 clk_divider.count_out\[20\] vssd1 vssd1 vccd1 vccd1 sky130_fd_sc_hd__diode_2
X_0985_ net13 _0019_ _0373_ _0374_ vssd1 vssd1 vccd1 vccd1 _0375_ sky130_fd_sc_hd__a211o_1
XANTENNA__1057__C net90 vssd1 vssd1 vccd1 vccd1 sky130_fd_sc_hd__diode_2
Xfanout105 count\[2\] vssd1 vssd1 vccd1 vccd1 net105 sky130_fd_sc_hd__dlymetal6s2s_1
Xfanout116 net117 vssd1 vssd1 vccd1 vccd1 net116 sky130_fd_sc_hd__clkbuf_2
XANTENNA__1073__B net95 vssd1 vssd1 vccd1 vccd1 sky130_fd_sc_hd__diode_2
Xteam_00_148 vssd1 vssd1 vccd1 vccd1 team_00_148/HI la_data_out[22] sky130_fd_sc_hd__conb_1
Xteam_00_126 vssd1 vssd1 vccd1 vccd1 team_00_126/HI la_data_out[0] sky130_fd_sc_hd__conb_1
Xteam_00_137 vssd1 vssd1 vccd1 vccd1 team_00_137/HI la_data_out[11] sky130_fd_sc_hd__conb_1
XANTENNA__0929__B1 clk_divider.count_out\[23\] vssd1 vssd1 vccd1 vccd1 sky130_fd_sc_hd__diode_2
X_0770_ _0152_ _0159_ _0158_ vssd1 vssd1 vccd1 vccd1 _0160_ sky130_fd_sc_hd__a21o_1
X_1253_ _0577_ _0599_ vssd1 vssd1 vccd1 vccd1 _0600_ sky130_fd_sc_hd__and2_1
X_1184_ _0186_ clk_divider.next_count\[13\] vssd1 vssd1 vccd1 vccd1 _0542_ sky130_fd_sc_hd__xnor2_1
X_0968_ clk_divider.count_out\[15\] _0182_ vssd1 vssd1 vccd1 vccd1 _0358_ sky130_fd_sc_hd__nand2_1
XANTENNA__0805__X _0195_ vssd1 vssd1 vccd1 vccd1 sky130_fd_sc_hd__diode_2
X_0899_ _0281_ _0278_ vssd1 vssd1 vccd1 vccd1 _0289_ sky130_fd_sc_hd__nand2b_1
XANTENNA__1068__B net95 vssd1 vssd1 vccd1 vccd1 sky130_fd_sc_hd__diode_2
XANTENNA__0700__B net14 vssd1 vssd1 vccd1 vccd1 sky130_fd_sc_hd__diode_2
XFILLER_130_55 vssd1 vssd1 vccd1 vccd1 sky130_fd_sc_hd__fill_1
XFILLER_99_57 vssd1 vssd1 vccd1 vccd1 sky130_fd_sc_hd__decap_4
XFILLER_0_35 vssd1 vssd1 vccd1 vccd1 sky130_fd_sc_hd__fill_1
XFILLER_0_57 vssd1 vssd1 vccd1 vccd1 sky130_fd_sc_hd__fill_1
X_0822_ _0203_ _0205_ _0206_ vssd1 vssd1 vccd1 vccd1 _0212_ sky130_fd_sc_hd__o21bai_1
XPHY_EDGE_ROW_104_Right_104 vssd1 vssd1 vccd1 vccd1 sky130_fd_sc_hd__decap_3
X_0684_ net16 net15 vssd1 vssd1 vccd1 vccd1 _0074_ sky130_fd_sc_hd__xor2_2
X_0753_ _0140_ _0141_ vssd1 vssd1 vccd1 vccd1 _0143_ sky130_fd_sc_hd__xnor2_2
X_1236_ _0000_ _0588_ _0590_ vssd1 vssd1 vccd1 vccd1 net78 sky130_fd_sc_hd__and3_1
X_1305_ clknet_2_2__leaf_clk clk_divider.next_count\[21\] net122 vssd1 vssd1 vccd1
+ vccd1 clk_divider.count_out\[21\] sky130_fd_sc_hd__dfrtp_1
XFILLER_100_25 vssd1 vssd1 vccd1 vccd1 sky130_fd_sc_hd__decap_3
X_1098_ clk_divider.count_out\[14\] _0465_ vssd1 vssd1 vccd1 vccd1 _0470_ sky130_fd_sc_hd__xor2_1
X_1167_ clk_divider.count_out\[25\] net114 _0524_ _0527_ net99 vssd1 vssd1 vccd1 vccd1
+ clk_divider.next_count\[25\] sky130_fd_sc_hd__o221a_1
XFILLER_100_58 vssd1 vssd1 vccd1 vccd1 sky130_fd_sc_hd__decap_4
XFILLER_85_59 vssd1 vssd1 vccd1 vccd1 sky130_fd_sc_hd__fill_1
XFILLER_98_3 vssd1 vssd1 vccd1 vccd1 sky130_fd_sc_hd__decap_4
X_1021_ net109 _0199_ _0027_ vssd1 vssd1 vccd1 vccd1 _0410_ sky130_fd_sc_hd__a21oi_1
X_0805_ _0169_ _0194_ vssd1 vssd1 vccd1 vccd1 _0195_ sky130_fd_sc_hd__or2_2
X_0667_ _0047_ _0055_ vssd1 vssd1 vccd1 vccd1 _0057_ sky130_fd_sc_hd__xnor2_4
X_0736_ net13 _0105_ vssd1 vssd1 vccd1 vccd1 _0126_ sky130_fd_sc_hd__xnor2_2
X_1219_ _0549_ _0562_ _0576_ vssd1 vssd1 vccd1 vccd1 clk_divider.next_flag sky130_fd_sc_hd__nor3_1
XFILLER_111_57 vssd1 vssd1 vccd1 vccd1 sky130_fd_sc_hd__decap_3
XFILLER_96_47 vssd1 vssd1 vccd1 vccd1 sky130_fd_sc_hd__fill_1
XFILLER_29_41 vssd1 vssd1 vccd1 vccd1 sky130_fd_sc_hd__fill_1
XANTENNA_input18_A prescaler[7] vssd1 vssd1 vccd1 vccd1 sky130_fd_sc_hd__diode_2
XANTENNA__0616__A net15 vssd1 vssd1 vccd1 vccd1 sky130_fd_sc_hd__diode_2
XFILLER_13_3 vssd1 vssd1 vccd1 vccd1 sky130_fd_sc_hd__fill_1
XTAP_TAPCELL_ROW_103_366 vssd1 vccd1 sky130_fd_sc_hd__tapvpwrvgnd_1
X_1004_ _0344_ _0393_ _0336_ _0340_ vssd1 vssd1 vccd1 vccd1 _0394_ sky130_fd_sc_hd__o211a_1
X_0719_ _0010_ _0011_ vssd1 vssd1 vccd1 vccd1 _0109_ sky130_fd_sc_hd__nor2_1
XTAP_TAPCELL_ROW_0_263 vssd1 vccd1 sky130_fd_sc_hd__tapvpwrvgnd_1
Xoutput64 net64 vssd1 vssd1 vccd1 vccd1 gpio_out[17] sky130_fd_sc_hd__buf_2
Xoutput75 net75 vssd1 vssd1 vccd1 vccd1 gpio_out[27] sky130_fd_sc_hd__buf_2
Xoutput42 net42 vssd1 vssd1 vccd1 vccd1 gpio_oeb[28] sky130_fd_sc_hd__buf_2
Xoutput53 net53 vssd1 vssd1 vccd1 vccd1 gpio_oeb[7] sky130_fd_sc_hd__buf_2
Xoutput31 net31 vssd1 vssd1 vccd1 vccd1 gpio_oeb[18] sky130_fd_sc_hd__buf_2
XANTENNA__0983__A1 net13 vssd1 vssd1 vccd1 vccd1 sky130_fd_sc_hd__diode_2
Xoutput86 net86 vssd1 vssd1 vccd1 vccd1 gpio_out[6] sky130_fd_sc_hd__buf_2
XANTENNA__0617__Y _0010_ vssd1 vssd1 vccd1 vccd1 sky130_fd_sc_hd__diode_2
XANTENNA__0726__A1 _0010_ vssd1 vssd1 vccd1 vccd1 sky130_fd_sc_hd__diode_2
XANTENNA__0808__X _0198_ vssd1 vssd1 vccd1 vccd1 sky130_fd_sc_hd__diode_2
XFILLER_93_59 vssd1 vssd1 vccd1 vccd1 sky130_fd_sc_hd__decap_3
XANTENNA__1268__Y net66 vssd1 vssd1 vccd1 vccd1 sky130_fd_sc_hd__diode_2
XANTENNA__1163__C net90 vssd1 vssd1 vccd1 vccd1 sky130_fd_sc_hd__diode_2
X_0984_ _0010_ clk_divider.count_out\[7\] vssd1 vssd1 vccd1 vccd1 _0374_ sky130_fd_sc_hd__nor2_1
XFILLER_80_3 vssd1 vssd1 vccd1 vccd1 sky130_fd_sc_hd__decap_8
Xfanout117 net48 vssd1 vssd1 vccd1 vccd1 net117 sky130_fd_sc_hd__clkbuf_2
Xteam_00_138 vssd1 vssd1 vccd1 vccd1 team_00_138/HI la_data_out[12] sky130_fd_sc_hd__conb_1
Xfanout106 count\[1\] vssd1 vssd1 vccd1 vccd1 net106 sky130_fd_sc_hd__clkbuf_2
XANTENNA__1073__C net90 vssd1 vssd1 vccd1 vccd1 sky130_fd_sc_hd__diode_2
Xteam_00_127 vssd1 vssd1 vccd1 vccd1 team_00_127/HI la_data_out[1] sky130_fd_sc_hd__conb_1
Xteam_00_149 vssd1 vssd1 vccd1 vccd1 team_00_149/HI la_data_out[23] sky130_fd_sc_hd__conb_1
XPHY_EDGE_ROW_118_Right_118 vssd1 vssd1 vccd1 vccd1 sky130_fd_sc_hd__decap_3
XANTENNA__1060__B1 _0036_ vssd1 vssd1 vccd1 vccd1 sky130_fd_sc_hd__diode_2
XFILLER_88_15 vssd1 vssd1 vccd1 vccd1 sky130_fd_sc_hd__fill_1
XTAP_TAPCELL_ROW_75_338 vssd1 vccd1 sky130_fd_sc_hd__tapvpwrvgnd_1
XFILLER_52_7 vssd1 vssd1 vccd1 vccd1 sky130_fd_sc_hd__fill_1
X_1252_ net104 net106 net103 vssd1 vssd1 vccd1 vccd1 _0599_ sky130_fd_sc_hd__o21ai_1
X_1183_ _0318_ _0518_ clk_divider.next_count\[2\] vssd1 vssd1 vccd1 vccd1 _0541_ sky130_fd_sc_hd__a21o_1
X_0967_ clk_divider.count_out\[15\] _0182_ vssd1 vssd1 vccd1 vccd1 _0357_ sky130_fd_sc_hd__nor2_1
XANTENNA__1068__C net90 vssd1 vssd1 vccd1 vccd1 sky130_fd_sc_hd__diode_2
X_0898_ _0287_ vssd1 vssd1 vccd1 vccd1 _0288_ sky130_fd_sc_hd__inv_2
XPHY_EDGE_ROW_12_Right_12 vssd1 vssd1 vccd1 vccd1 sky130_fd_sc_hd__decap_3
XANTENNA_fanout118_A net48 vssd1 vssd1 vccd1 vccd1 sky130_fd_sc_hd__diode_2
XFILLER_58_18 vssd1 vssd1 vccd1 vccd1 sky130_fd_sc_hd__fill_1
XFILLER_58_29 vssd1 vssd1 vccd1 vccd1 sky130_fd_sc_hd__decap_4
XPHY_EDGE_ROW_21_Right_21 vssd1 vssd1 vccd1 vccd1 sky130_fd_sc_hd__decap_3
XFILLER_130_23 vssd1 vssd1 vccd1 vccd1 sky130_fd_sc_hd__fill_1
XPHY_EDGE_ROW_30_Right_30 vssd1 vssd1 vccd1 vccd1 sky130_fd_sc_hd__decap_3
XANTENNA_fanout90_X net90 vssd1 vssd1 vccd1 vccd1 sky130_fd_sc_hd__diode_2
XPHY_EDGE_ROW_14_Left_145 vssd1 vssd1 vccd1 vccd1 sky130_fd_sc_hd__decap_3
XFILLER_64_61 vssd1 vssd1 vccd1 vccd1 sky130_fd_sc_hd__fill_1
XANTENNA__0619__A net124 vssd1 vssd1 vccd1 vccd1 sky130_fd_sc_hd__diode_2
X_0821_ _0049_ _0210_ _0209_ vssd1 vssd1 vccd1 vccd1 _0211_ sky130_fd_sc_hd__a21bo_1
XTAP_TAPCELL_ROW_16_279 vssd1 vccd1 sky130_fd_sc_hd__tapvpwrvgnd_1
X_0752_ _0140_ _0141_ vssd1 vssd1 vccd1 vccd1 _0142_ sky130_fd_sc_hd__nand2b_1
X_0683_ _0008_ _0009_ vssd1 vssd1 vccd1 vccd1 _0073_ sky130_fd_sc_hd__nor2_1
XPHY_EDGE_ROW_23_Left_154 vssd1 vssd1 vccd1 vccd1 sky130_fd_sc_hd__decap_3
X_1235_ net104 _0023_ vssd1 vssd1 vccd1 vccd1 _0590_ sky130_fd_sc_hd__nor2_1
X_1304_ clknet_2_2__leaf_clk clk_divider.next_count\[20\] net121 vssd1 vssd1 vccd1
+ vccd1 clk_divider.count_out\[20\] sky130_fd_sc_hd__dfrtp_2
X_1166_ net97 _0525_ _0526_ _0036_ vssd1 vssd1 vccd1 vccd1 _0527_ sky130_fd_sc_hd__a31o_1
X_1097_ clk_divider.count_out\[14\] _0465_ vssd1 vssd1 vccd1 vccd1 _0469_ sky130_fd_sc_hd__and2_1
XPHY_EDGE_ROW_32_Left_163 vssd1 vssd1 vccd1 vccd1 sky130_fd_sc_hd__decap_3
XTAP_TAPCELL_ROW_30_293 vssd1 vccd1 sky130_fd_sc_hd__tapvpwrvgnd_1
XPHY_EDGE_ROW_41_Left_172 vssd1 vssd1 vccd1 vccd1 sky130_fd_sc_hd__decap_3
XTAP_TAPCELL_ROW_109_372 vssd1 vccd1 sky130_fd_sc_hd__tapvpwrvgnd_1
XTAP_TAPCELL_ROW_45_308 vssd1 vccd1 sky130_fd_sc_hd__tapvpwrvgnd_1
XPHY_EDGE_ROW_50_Left_181 vssd1 vssd1 vccd1 vccd1 sky130_fd_sc_hd__decap_3
XFILLER_50_52 vssd1 vssd1 vccd1 vccd1 sky130_fd_sc_hd__fill_2
XFILLER_59_61 vssd1 vssd1 vccd1 vccd1 sky130_fd_sc_hd__fill_1
X_1020_ net96 _0408_ vssd1 vssd1 vccd1 vccd1 _0409_ sky130_fd_sc_hd__nand2_1
X_0735_ _0122_ _0124_ vssd1 vssd1 vccd1 vccd1 _0125_ sky130_fd_sc_hd__nand2_1
X_0804_ _0167_ _0168_ vssd1 vssd1 vccd1 vccd1 _0194_ sky130_fd_sc_hd__and2_1
X_0666_ _0047_ _0055_ vssd1 vssd1 vccd1 vccd1 _0056_ sky130_fd_sc_hd__nand2_1
X_1218_ _0566_ _0570_ _0573_ _0575_ vssd1 vssd1 vccd1 vccd1 _0576_ sky130_fd_sc_hd__or4_1
X_1149_ _0508_ _0511_ _0512_ net99 vssd1 vssd1 vccd1 vccd1 clk_divider.next_count\[22\]
+ sky130_fd_sc_hd__o211a_1
XANTENNA__0706__B net14 vssd1 vssd1 vccd1 vccd1 sky130_fd_sc_hd__diode_2
XFILLER_29_31 vssd1 vssd1 vccd1 vccd1 sky130_fd_sc_hd__fill_1
X_1003_ _0348_ _0389_ _0390_ _0392_ vssd1 vssd1 vccd1 vccd1 _0393_ sky130_fd_sc_hd__and4_1
XANTENNA__0807__A _0188_ vssd1 vssd1 vccd1 vccd1 sky130_fd_sc_hd__diode_2
X_0718_ _0106_ _0107_ vssd1 vssd1 vccd1 vccd1 _0108_ sky130_fd_sc_hd__nor2_1
XPHY_EDGE_ROW_6_Right_6 vssd1 vssd1 vccd1 vccd1 sky130_fd_sc_hd__decap_3
XANTENNA__0992__A2 _0195_ vssd1 vssd1 vccd1 vccd1 sky130_fd_sc_hd__diode_2
XANTENNA__1305__CLK clknet_2_2__leaf_clk vssd1 vssd1 vccd1 vccd1 sky130_fd_sc_hd__diode_2
X_0649_ net8 _0038_ vssd1 vssd1 vccd1 vccd1 _0039_ sky130_fd_sc_hd__nand2_1
XANTENNA__0717__A net14 vssd1 vssd1 vccd1 vccd1 sky130_fd_sc_hd__diode_2
XFILLER_110_3 vssd1 vssd1 vccd1 vccd1 sky130_fd_sc_hd__fill_1
Xoutput43 net43 vssd1 vssd1 vccd1 vccd1 gpio_oeb[29] sky130_fd_sc_hd__buf_2
Xoutput87 net87 vssd1 vssd1 vccd1 vccd1 gpio_out[7] sky130_fd_sc_hd__buf_2
Xoutput21 net21 vssd1 vssd1 vccd1 vccd1 done sky130_fd_sc_hd__buf_2
Xoutput65 net65 vssd1 vssd1 vccd1 vccd1 gpio_out[18] sky130_fd_sc_hd__buf_2
Xoutput76 net76 vssd1 vssd1 vccd1 vccd1 gpio_out[28] sky130_fd_sc_hd__buf_2
Xoutput32 net32 vssd1 vssd1 vccd1 vccd1 gpio_oeb[19] sky130_fd_sc_hd__buf_2
XANTENNA__1294__RESET_B net121 vssd1 vssd1 vccd1 vccd1 sky130_fd_sc_hd__diode_2
Xoutput54 net54 vssd1 vssd1 vccd1 vccd1 gpio_oeb[8] sky130_fd_sc_hd__buf_2
XPHY_EDGE_ROW_59_Right_59 vssd1 vssd1 vccd1 vccd1 sky130_fd_sc_hd__decap_3
XANTENNA__0726__A2 net13 vssd1 vssd1 vccd1 vccd1 sky130_fd_sc_hd__diode_2
XPHY_EDGE_ROW_68_Right_68 vssd1 vssd1 vccd1 vccd1 sky130_fd_sc_hd__decap_3
XPHY_EDGE_ROW_6_Left_137 vssd1 vssd1 vccd1 vccd1 sky130_fd_sc_hd__decap_3
XPHY_EDGE_ROW_77_Right_77 vssd1 vssd1 vccd1 vccd1 sky130_fd_sc_hd__decap_3
XPHY_EDGE_ROW_86_Right_86 vssd1 vssd1 vccd1 vccd1 sky130_fd_sc_hd__decap_3
XPHY_EDGE_ROW_95_Right_95 vssd1 vssd1 vccd1 vccd1 sky130_fd_sc_hd__decap_3
XANTENNA__0708__A2 net14 vssd1 vssd1 vccd1 vccd1 sky130_fd_sc_hd__diode_2
X_0983_ net13 _0019_ _0372_ vssd1 vssd1 vccd1 vccd1 _0373_ sky130_fd_sc_hd__o21ai_1
Xfanout107 count\[0\] vssd1 vssd1 vccd1 vccd1 net107 sky130_fd_sc_hd__clkbuf_2
Xfanout118 net48 vssd1 vssd1 vccd1 vccd1 net118 sky130_fd_sc_hd__clkbuf_2
Xteam_00_139 vssd1 vssd1 vccd1 vccd1 team_00_139/HI la_data_out[13] sky130_fd_sc_hd__conb_1
Xteam_00_128 vssd1 vssd1 vccd1 vccd1 team_00_128/HI la_data_out[2] sky130_fd_sc_hd__conb_1
XFILLER_103_15 vssd1 vssd1 vccd1 vccd1 sky130_fd_sc_hd__fill_1
XFILLER_88_27 vssd1 vssd1 vccd1 vccd1 sky130_fd_sc_hd__fill_1
XPHY_EDGE_ROW_78_Left_209 vssd1 vssd1 vccd1 vccd1 sky130_fd_sc_hd__decap_3
X_1182_ _0199_ clk_divider.next_count\[0\] clk_divider.next_count\[1\] vssd1 vssd1
+ vccd1 vccd1 _0540_ sky130_fd_sc_hd__or3_1
X_1251_ _0589_ _0598_ vssd1 vssd1 vccd1 vccd1 net89 sky130_fd_sc_hd__nor2_1
XPHY_EDGE_ROW_87_Left_218 vssd1 vssd1 vccd1 vccd1 sky130_fd_sc_hd__decap_3
XPHY_EDGE_ROW_96_Left_227 vssd1 vssd1 vccd1 vccd1 sky130_fd_sc_hd__decap_3
X_0897_ _0231_ _0264_ vssd1 vssd1 vccd1 vccd1 _0287_ sky130_fd_sc_hd__or2_1
X_0966_ _0353_ _0354_ vssd1 vssd1 vccd1 vccd1 _0356_ sky130_fd_sc_hd__nand2_1
XFILLER_74_18 vssd1 vssd1 vccd1 vccd1 sky130_fd_sc_hd__decap_8
XFILLER_74_29 vccd1 vssd1 vccd1 vssd1 sky130_ef_sc_hd__decap_12
XFILLER_90_39 vssd1 vssd1 vccd1 vccd1 sky130_fd_sc_hd__fill_1
XFILLER_99_26 vssd1 vssd1 vccd1 vccd1 sky130_fd_sc_hd__decap_6
X_0820_ _0202_ _0208_ vssd1 vssd1 vccd1 vccd1 _0210_ sky130_fd_sc_hd__xor2_2
XFILLER_9_57 vssd1 vssd1 vccd1 vccd1 sky130_fd_sc_hd__fill_1
XFILLER_80_61 vssd1 vssd1 vccd1 vccd1 sky130_fd_sc_hd__fill_1
X_0751_ _0109_ _0119_ vssd1 vssd1 vccd1 vccd1 _0141_ sky130_fd_sc_hd__xnor2_2
X_0682_ _0045_ _0046_ vssd1 vssd1 vccd1 vccd1 _0072_ sky130_fd_sc_hd__xnor2_2
X_1303_ clknet_2_2__leaf_clk clk_divider.next_count\[19\] net121 vssd1 vssd1 vccd1