*SPEF "ieee 1481-1999"
*DESIGN "team_00"
*DATE "17:34:08 Wednesday June 18, 2025"
*VENDOR "The OpenROAD Project"
*PROGRAM "OpenROAD"
*VERSION "edf00dff99f6c40d67a30c0e22a8191c5d2ed9d6"
*DESIGN_FLOW "NAME_SCOPE LOCAL" "PIN_CAP NONE"
*DIVIDER /
*DELIMITER :
*BUS_DELIMITER []
*T_UNIT 1 NS
*C_UNIT 1 PF
*R_UNIT 1 OHM
*L_UNIT 1 HENRY

*NAME_MAP
*1 clk
*2 done
*3 en
*4 gpio_in[0]
*5 gpio_in[10]
*6 gpio_in[11]
*7 gpio_in[12]
*8 gpio_in[13]
*9 gpio_in[14]
*10 gpio_in[15]
*11 gpio_in[16]
*12 gpio_in[17]
*13 gpio_in[18]
*14 gpio_in[19]
*15 gpio_in[1]
*16 gpio_in[20]
*17 gpio_in[21]
*18 gpio_in[22]
*19 gpio_in[23]
*20 gpio_in[24]
*21 gpio_in[25]
*22 gpio_in[26]
*23 gpio_in[27]
*24 gpio_in[28]
*25 gpio_in[29]
*26 gpio_in[2]
*27 gpio_in[30]
*28 gpio_in[31]
*29 gpio_in[32]
*30 gpio_in[33]
*31 gpio_in[3]
*32 gpio_in[4]
*33 gpio_in[5]
*34 gpio_in[6]
*35 gpio_in[7]
*36 gpio_in[8]
*37 gpio_in[9]
*38 gpio_oeb[0]
*39 gpio_oeb[10]
*40 gpio_oeb[11]
*41 gpio_oeb[12]
*42 gpio_oeb[13]
*43 gpio_oeb[14]
*44 gpio_oeb[15]
*45 gpio_oeb[16]
*46 gpio_oeb[17]
*47 gpio_oeb[18]
*48 gpio_oeb[19]
*49 gpio_oeb[1]
*50 gpio_oeb[20]
*51 gpio_oeb[21]
*52 gpio_oeb[22]
*53 gpio_oeb[23]
*54 gpio_oeb[24]
*55 gpio_oeb[25]
*56 gpio_oeb[26]
*57 gpio_oeb[27]
*58 gpio_oeb[28]
*59 gpio_oeb[29]
*60 gpio_oeb[2]
*61 gpio_oeb[30]
*62 gpio_oeb[31]
*63 gpio_oeb[32]
*64 gpio_oeb[33]
*65 gpio_oeb[3]
*66 gpio_oeb[4]
*67 gpio_oeb[5]
*68 gpio_oeb[6]
*69 gpio_oeb[7]
*70 gpio_oeb[8]
*71 gpio_oeb[9]
*72 gpio_out[0]
*73 gpio_out[10]
*74 gpio_out[11]
*75 gpio_out[12]
*76 gpio_out[13]
*77 gpio_out[14]
*78 gpio_out[15]
*79 gpio_out[16]
*80 gpio_out[17]
*81 gpio_out[18]
*82 gpio_out[19]
*83 gpio_out[1]
*84 gpio_out[20]
*85 gpio_out[21]
*86 gpio_out[22]
*87 gpio_out[23]
*88 gpio_out[24]
*89 gpio_out[25]
*90 gpio_out[26]
*91 gpio_out[27]
*92 gpio_out[28]
*93 gpio_out[29]
*94 gpio_out[2]
*95 gpio_out[30]
*96 gpio_out[31]
*97 gpio_out[32]
*98 gpio_out[33]
*99 gpio_out[3]
*100 gpio_out[4]
*101 gpio_out[5]
*102 gpio_out[6]
*103 gpio_out[7]
*104 gpio_out[8]
*105 gpio_out[9]
*106 la_data_in[0]
*107 la_data_in[10]
*108 la_data_in[11]
*109 la_data_in[12]
*110 la_data_in[13]
*111 la_data_in[14]
*112 la_data_in[15]
*113 la_data_in[16]
*114 la_data_in[17]
*115 la_data_in[18]
*116 la_data_in[19]
*117 la_data_in[1]
*118 la_data_in[20]
*119 la_data_in[21]
*120 la_data_in[22]
*121 la_data_in[23]
*122 la_data_in[24]
*123 la_data_in[25]
*124 la_data_in[26]
*125 la_data_in[27]
*126 la_data_in[28]
*127 la_data_in[29]
*128 la_data_in[2]
*129 la_data_in[30]
*130 la_data_in[31]
*131 la_data_in[3]
*132 la_data_in[4]
*133 la_data_in[5]
*134 la_data_in[6]
*135 la_data_in[7]
*136 la_data_in[8]
*137 la_data_in[9]
*138 net126
*139 net136
*140 net137
*141 net138
*142 net139
*143 net140
*144 net141
*145 net142
*146 net143
*147 net144
*148 net145
*149 net127
*150 net146
*151 net147
*152 net148
*153 net149
*154 net150
*155 net151
*156 net152
*157 net153
*158 net154
*159 net155
*160 net128
*161 net156
*162 net157
*163 net129
*164 net130
*165 net131
*166 net132
*167 net133
*168 net134
*169 net135
*170 la_oenb[0]
*171 la_oenb[10]
*172 la_oenb[11]
*173 la_oenb[12]
*174 la_oenb[13]
*175 la_oenb[14]
*176 la_oenb[15]
*177 la_oenb[16]
*178 la_oenb[17]
*179 la_oenb[18]
*180 la_oenb[19]
*181 la_oenb[1]
*182 la_oenb[20]
*183 la_oenb[21]
*184 la_oenb[22]
*185 la_oenb[23]
*186 la_oenb[24]
*187 la_oenb[25]
*188 la_oenb[26]
*189 la_oenb[27]
*190 la_oenb[28]
*191 la_oenb[29]
*192 la_oenb[2]
*193 la_oenb[30]
*194 la_oenb[31]
*195 la_oenb[3]
*196 la_oenb[4]
*197 la_oenb[5]
*198 la_oenb[6]
*199 la_oenb[7]
*200 la_oenb[8]
*201 la_oenb[9]
*202 nrst
*203 prescaler[0]
*204 prescaler[10]
*205 prescaler[11]
*206 prescaler[12]
*207 prescaler[13]
*208 prescaler[1]
*209 prescaler[2]
*210 prescaler[3]
*211 prescaler[4]
*212 prescaler[5]
*213 prescaler[6]
*214 prescaler[7]
*215 prescaler[8]
*216 prescaler[9]
*219 _0000_
*220 _0001_
*221 _0002_
*222 _0003_
*223 _0004_
*224 _0005_
*225 _0006_
*226 _0007_
*227 _0008_
*228 _0009_
*229 _0010_
*230 _0011_
*231 _0012_
*232 _0013_
*233 _0014_
*234 _0015_
*235 _0016_
*236 _0017_
*237 _0018_
*238 _0019_
*239 _0020_
*240 _0021_
*241 _0022_
*242 _0023_
*243 _0024_
*244 _0025_
*245 _0026_
*246 _0027_
*247 _0028_
*248 _0029_
*249 _0030_
*250 _0031_
*251 _0032_
*252 _0033_
*253 _0034_
*254 _0035_
*255 _0036_
*256 _0037_
*257 _0038_
*258 _0039_
*259 _0040_
*260 _0041_
*261 _0042_
*262 _0043_
*263 _0044_
*264 _0045_
*265 _0046_
*266 _0047_
*267 _0048_
*268 _0049_
*269 _0050_
*270 _0051_
*271 _0052_
*272 _0053_
*273 _0054_
*274 _0055_
*275 _0056_
*276 _0057_
*277 _0058_
*278 _0059_
*279 _0060_
*280 _0061_
*281 _0062_
*282 _0063_
*283 _0064_
*284 _0065_
*285 _0066_
*286 _0067_
*287 _0068_
*288 _0069_
*289 _0070_
*290 _0071_
*291 _0072_
*292 _0073_
*293 _0074_
*294 _0075_
*295 _0076_
*296 _0077_
*297 _0078_
*298 _0079_
*299 _0080_
*300 _0081_
*301 _0082_
*302 _0083_
*303 _0084_
*304 _0085_
*305 _0086_
*306 _0087_
*307 _0088_
*308 _0089_
*309 _0090_
*310 _0091_
*311 _0092_
*312 _0093_
*313 _0094_
*314 _0095_
*315 _0096_
*316 _0097_
*317 _0098_
*318 _0099_
*319 _0100_
*320 _0101_
*321 _0102_
*322 _0103_
*323 _0104_
*324 _0105_
*325 _0106_
*326 _0107_
*327 _0108_
*328 _0109_
*329 _0110_
*330 _0111_
*331 _0112_
*332 _0113_
*333 _0114_
*334 _0115_
*335 _0116_
*336 _0117_
*337 _0118_
*338 _0119_
*339 _0120_
*340 _0121_
*341 _0122_
*342 _0123_
*343 _0124_
*344 _0125_
*345 _0126_
*346 _0127_
*347 _0128_
*348 _0129_
*349 _0130_
*350 _0131_
*351 _0132_
*352 _0133_
*353 _0134_
*354 _0135_
*355 _0136_
*356 _0137_
*357 _0138_
*358 _0139_
*359 _0140_
*360 _0141_
*361 _0142_
*362 _0143_
*363 _0144_
*364 _0145_
*365 _0146_
*366 _0147_
*367 _0148_
*368 _0149_
*369 _0150_
*370 _0151_
*371 _0152_
*372 _0153_
*373 _0154_
*374 _0155_
*375 _0156_
*376 _0157_
*377 _0158_
*378 _0159_
*379 _0160_
*380 _0161_
*381 _0162_
*382 _0163_
*383 _0164_
*384 _0165_
*385 _0166_
*386 _0167_
*387 _0168_
*388 _0169_
*389 _0170_
*390 _0171_
*391 _0172_
*392 _0173_
*393 _0174_
*394 _0175_
*395 _0176_
*396 _0177_
*397 _0178_
*398 _0179_
*399 _0180_
*400 _0181_
*401 _0182_
*402 _0183_
*403 _0184_
*404 _0185_
*405 _0186_
*406 _0187_
*407 _0188_
*408 _0189_
*409 _0190_
*410 _0191_
*411 _0192_
*412 _0193_
*413 _0194_
*414 _0195_
*415 _0196_
*416 _0197_
*417 _0198_
*418 _0199_
*419 _0200_
*420 _0201_
*421 _0202_
*422 _0203_
*423 _0204_
*424 _0205_
*425 _0206_
*426 _0207_
*427 _0208_
*428 _0209_
*429 _0210_
*430 _0211_
*431 _0212_
*432 _0213_
*433 _0214_
*434 _0215_
*435 _0216_
*436 _0217_
*437 _0218_
*438 _0219_
*439 _0220_
*440 _0221_
*441 _0222_
*442 _0223_
*443 _0224_
*444 _0225_
*445 _0226_
*446 _0227_
*447 _0228_
*448 _0229_
*449 _0230_
*450 _0231_
*451 _0232_
*452 _0233_
*453 _0234_
*454 _0235_
*455 _0236_
*456 _0237_
*457 _0238_
*458 _0239_
*459 _0240_
*460 _0241_
*461 _0242_
*462 _0243_
*463 _0244_
*464 _0245_
*465 _0246_
*466 _0247_
*467 _0248_
*468 _0249_
*469 _0250_
*470 _0251_
*471 _0252_
*472 _0253_
*473 _0254_
*474 _0255_
*475 _0256_
*476 _0257_
*477 _0258_
*478 _0259_
*479 _0260_
*480 _0261_
*481 _0262_
*482 _0263_
*483 _0264_
*484 _0265_
*485 _0266_
*486 _0267_
*487 _0268_
*488 _0269_
*489 _0270_
*490 _0271_
*491 _0272_
*492 _0273_
*493 _0274_
*494 _0275_
*495 _0276_
*496 _0277_
*497 _0278_
*498 _0279_
*499 _0280_
*500 _0281_
*501 _0282_
*502 _0283_
*503 _0284_
*504 _0285_
*505 _0286_
*506 _0287_
*507 _0288_
*508 _0289_
*509 _0290_
*510 _0291_
*511 _0292_
*512 _0293_
*513 _0294_
*514 _0295_
*515 _0296_
*516 _0297_
*517 _0298_
*518 _0299_
*519 _0300_
*520 _0301_
*521 _0302_
*522 _0303_
*523 _0304_
*524 _0305_
*525 _0306_
*526 _0307_
*527 _0308_
*528 _0309_
*529 _0310_
*530 _0311_
*531 _0312_
*532 _0313_
*533 _0314_
*534 _0315_
*535 _0316_
*536 _0317_
*537 _0318_
*538 _0319_
*539 _0320_
*540 _0321_
*541 _0322_
*542 _0323_
*543 _0324_
*544 _0325_
*545 _0326_
*546 _0327_
*547 _0328_
*548 _0329_
*549 _0330_
*550 _0331_
*551 _0332_
*552 _0333_
*553 _0334_
*554 _0335_
*555 _0336_
*556 _0337_
*557 _0338_
*558 _0339_
*559 _0340_
*560 _0341_
*561 _0342_
*562 _0343_
*563 _0344_
*564 _0345_
*565 _0346_
*566 _0347_
*567 _0348_
*568 _0349_
*569 _0350_
*570 _0351_
*571 _0352_
*572 _0353_
*573 _0354_
*574 _0355_
*575 _0356_
*576 _0357_
*577 _0358_
*578 _0359_
*579 _0360_
*580 _0361_
*581 _0362_
*582 _0363_
*583 _0364_
*584 _0365_
*585 _0366_
*586 _0367_
*587 _0368_
*588 _0369_
*589 _0370_
*590 _0371_
*591 _0372_
*592 _0373_
*593 _0374_
*594 _0375_
*595 _0376_
*596 _0377_
*597 _0378_
*598 _0379_
*599 _0380_
*600 _0381_
*601 _0382_
*602 _0383_
*603 _0384_
*604 _0385_
*605 _0386_
*606 _0387_
*607 _0388_
*608 _0389_
*609 _0390_
*610 _0391_
*611 _0392_
*612 _0393_
*613 _0394_
*614 _0395_
*615 _0396_
*616 _0397_
*617 _0398_
*618 _0399_
*619 _0400_
*620 _0401_
*621 _0402_
*622 _0403_
*623 _0404_
*624 _0405_
*625 _0406_
*626 _0407_
*627 _0408_
*628 _0409_
*629 _0410_
*630 _0411_
*631 _0412_
*632 _0413_
*633 _0414_
*634 _0415_
*635 _0416_
*636 _0417_
*637 _0418_
*638 _0419_
*639 _0420_
*640 _0421_
*641 _0422_
*642 _0423_
*643 _0424_
*644 _0425_
*645 _0426_
*646 _0427_
*647 _0428_
*648 _0429_
*649 _0430_
*650 _0431_
*651 _0432_
*652 _0433_
*653 _0434_
*654 _0435_
*655 _0436_
*656 _0437_
*657 _0438_
*658 _0439_
*659 _0440_
*660 _0441_
*661 _0442_
*662 _0443_
*663 _0444_
*664 _0445_
*665 _0446_
*666 _0447_
*667 _0448_
*668 _0449_
*669 _0450_
*670 _0451_
*671 _0452_
*672 _0453_
*673 _0454_
*674 _0455_
*675 _0456_
*676 _0457_
*677 _0458_
*678 _0459_
*679 _0460_
*680 _0461_
*681 _0462_
*682 _0463_
*683 _0464_
*684 _0465_
*685 _0466_
*686 _0467_
*687 _0468_
*688 _0469_
*689 _0470_
*690 _0471_
*691 _0472_
*692 _0473_
*693 _0474_
*694 _0475_
*695 _0476_
*696 _0477_
*697 _0478_
*698 _0479_
*699 _0480_
*700 _0481_
*701 _0482_
*702 _0483_
*703 _0484_
*704 _0485_
*705 _0486_
*706 _0487_
*707 _0488_
*708 _0489_
*709 _0490_
*710 _0491_
*711 _0492_
*712 _0493_
*713 _0494_
*714 _0495_
*715 _0496_
*716 _0497_
*717 _0498_
*718 _0499_
*719 _0500_
*720 _0501_
*721 _0502_
*722 _0503_
*723 _0504_
*724 _0505_
*725 _0506_
*726 _0507_
*727 _0508_
*728 _0509_
*729 _0510_
*730 _0511_
*731 _0512_
*732 _0513_
*733 _0514_
*734 _0515_
*735 _0516_
*736 _0517_
*737 _0518_
*738 _0519_
*739 _0520_
*740 _0521_
*741 _0522_
*742 _0523_
*743 _0524_
*744 _0525_
*745 _0526_
*746 _0527_
*747 _0528_
*748 _0529_
*749 _0530_
*750 _0531_
*751 _0532_
*752 _0533_
*753 _0534_
*754 _0535_
*755 _0536_
*756 _0537_
*757 _0538_
*758 _0539_
*759 _0540_
*760 _0541_
*761 _0542_
*762 _0543_
*763 _0544_
*764 _0545_
*765 _0546_
*766 _0547_
*767 _0548_
*768 _0549_
*769 _0550_
*770 _0551_
*771 _0552_
*772 _0553_
*773 _0554_
*774 _0555_
*775 _0556_
*776 _0557_
*777 _0558_
*778 _0559_
*779 _0560_
*780 _0561_
*781 _0562_
*782 _0563_
*783 _0564_
*784 _0565_
*785 _0566_
*786 _0567_
*787 _0568_
*788 _0569_
*789 _0570_
*790 _0571_
*791 _0572_
*792 _0573_
*793 _0574_
*794 _0575_
*795 _0576_
*796 _0577_
*797 _0578_
*798 _0579_
*799 _0580_
*800 _0581_
*801 _0582_
*802 _0583_
*803 _0584_
*804 _0585_
*805 _0586_
*806 _0587_
*807 _0588_
*808 _0589_
*809 _0590_
*810 _0591_
*811 _0592_
*812 _0593_
*813 _0594_
*814 _0595_
*815 _0596_
*816 _0597_
*817 _0598_
*818 _0599_
*819 _0600_
*820 _0601_
*821 _0602_
*822 _0603_
*823 _0604_
*824 _0605_
*825 clk_divider\.count_out\[0\]
*826 clk_divider\.count_out\[10\]
*827 clk_divider\.count_out\[11\]
*828 clk_divider\.count_out\[12\]
*829 clk_divider\.count_out\[13\]
*830 clk_divider\.count_out\[14\]
*831 clk_divider\.count_out\[15\]
*832 clk_divider\.count_out\[16\]
*833 clk_divider\.count_out\[17\]
*834 clk_divider\.count_out\[18\]
*835 clk_divider\.count_out\[19\]
*836 clk_divider\.count_out\[1\]
*837 clk_divider\.count_out\[20\]
*838 clk_divider\.count_out\[21\]
*839 clk_divider\.count_out\[22\]
*840 clk_divider\.count_out\[23\]
*841 clk_divider\.count_out\[24\]
*842 clk_divider\.count_out\[25\]
*843 clk_divider\.count_out\[26\]
*844 clk_divider\.count_out\[27\]
*845 clk_divider\.count_out\[2\]
*846 clk_divider\.count_out\[3\]
*847 clk_divider\.count_out\[4\]
*848 clk_divider\.count_out\[5\]
*849 clk_divider\.count_out\[6\]
*850 clk_divider\.count_out\[7\]
*851 clk_divider\.count_out\[8\]
*852 clk_divider\.count_out\[9\]
*853 clk_divider\.next_count\[0\]
*854 clk_divider\.next_count\[10\]
*855 clk_divider\.next_count\[11\]
*856 clk_divider\.next_count\[12\]
*857 clk_divider\.next_count\[13\]
*858 clk_divider\.next_count\[14\]
*859 clk_divider\.next_count\[15\]
*860 clk_divider\.next_count\[16\]
*861 clk_divider\.next_count\[17\]
*862 clk_divider\.next_count\[18\]
*863 clk_divider\.next_count\[19\]
*864 clk_divider\.next_count\[1\]
*865 clk_divider\.next_count\[20\]
*866 clk_divider\.next_count\[21\]
*867 clk_divider\.next_count\[22\]
*868 clk_divider\.next_count\[23\]
*869 clk_divider\.next_count\[24\]
*870 clk_divider\.next_count\[25\]
*871 clk_divider\.next_count\[26\]
*872 clk_divider\.next_count\[27\]
*873 clk_divider\.next_count\[2\]
*874 clk_divider\.next_count\[3\]
*875 clk_divider\.next_count\[4\]
*876 clk_divider\.next_count\[5\]
*877 clk_divider\.next_count\[6\]
*878 clk_divider\.next_count\[7\]
*879 clk_divider\.next_count\[8\]
*880 clk_divider\.next_count\[9\]
*881 clk_divider\.next_flag
*882 clk_divider\.rollover_flag
*883 clknet_0_clk
*884 clknet_2_0__leaf_clk
*885 clknet_2_1__leaf_clk
*886 clknet_2_2__leaf_clk
*887 clknet_2_3__leaf_clk
*888 count\[0\]
*889 count\[1\]
*890 count\[2\]
*891 count\[3\]
*892 count\[4\]
*893 count\[5\]
*894 counter_to_35\.next_count\[0\]
*895 counter_to_35\.next_count\[1\]
*896 counter_to_35\.next_count\[2\]
*897 counter_to_35\.next_count\[3\]
*898 counter_to_35\.next_count\[4\]
*899 counter_to_35\.next_count\[5\]
*900 counter_to_35\.next_flag
*901 net1
*902 net10
*903 net100
*904 net101
*905 net102
*906 net103
*907 net104
*908 net105
*909 net106
*910 net107
*911 net108
*912 net109
*913 net11
*914 net110
*915 net111
*916 net112
*917 net113
*918 net114
*919 net115
*920 net116
*921 net117
*922 net118
*923 net119
*924 net12
*925 net120
*926 net121
*927 net122
*928 net123
*929 net124
*930 net125
*931 net13
*932 net14
*933 net15
*934 net16
*935 net17
*936 net18
*937 net19
*938 net2
*939 net20
*940 net21
*941 net22
*942 net23
*943 net24
*944 net25
*945 net26
*946 net27
*947 net28
*948 net29
*949 net3
*950 net30
*951 net31
*952 net32
*953 net33
*954 net34
*955 net35
*956 net36
*957 net37
*958 net38
*959 net39
*960 net4
*961 net40
*962 net41
*963 net42
*964 net43
*965 net44
*966 net45
*967 net46
*968 net47
*969 net48
*970 net49
*971 net5
*972 net50
*973 net51
*974 net52
*975 net53
*976 net54
*977 net55
*978 net56
*979 net57
*980 net58
*981 net59
*982 net6
*983 net60
*984 net61
*985 net62
*986 net63
*987 net64
*988 net65
*989 net66
*990 net67
*991 net68
*992 net69
*993 net7
*994 net70
*995 net71
*996 net72
*997 net73
*998 net74
*999 net75
*1000 net76
*1001 net77
*1002 net78
*1003 net79
*1004 net8
*1005 net80
*1006 net81
*1007 net82
*1008 net83
*1009 net84
*1010 net85
*1011 net86
*1012 net87
*1013 net88
*1014 net89
*1015 net9
*1016 net90
*1017 net91
*1018 net92
*1019 net93
*1020 net94
*1021 net95
*1022 net96
*1023 net97
*1024 net98
*1025 net99
*1026 ANTENNA__0607__A
*1027 ANTENNA__0608__A
*1028 ANTENNA__0612__A
*1029 ANTENNA__0613__A
*1030 ANTENNA__0614__A
*1031 ANTENNA__0616__A
*1032 ANTENNA__0617__A
*1033 ANTENNA__0618__A
*1034 ANTENNA__0620__A
*1035 ANTENNA__0633__A1
*1036 ANTENNA__0634__C
*1037 ANTENNA__0634__X
*1038 ANTENNA__0635__A
*1039 ANTENNA__0636__A2
*1040 ANTENNA__0636__B1
*1041 ANTENNA__0638__C
*1042 ANTENNA__0639__A2
*1043 ANTENNA__0643__A1
*1044 ANTENNA__0645__A_N
*1045 ANTENNA__0645__C
*1046 ANTENNA__0645__X
*1047 ANTENNA__0646__A
*1048 ANTENNA__0646__B
*1049 ANTENNA__0646__X
*1050 ANTENNA__0648__A
*1051 ANTENNA__0651__A
*1052 ANTENNA__0651__B
*1053 ANTENNA__0658__B
*1054 ANTENNA__0660__A
*1055 ANTENNA__0660__B
*1056 ANTENNA__0669__A2
*1057 ANTENNA__0670__B
*1058 ANTENNA__0671__B
*1059 ANTENNA__0681__A
*1060 ANTENNA__0684__B
*1061 ANTENNA__0688__B
*1062 ANTENNA__0690__A2
*1063 ANTENNA__0697__A1
*1064 ANTENNA__0700__A
*1065 ANTENNA__0700__B
*1066 ANTENNA__0702__A
*1067 ANTENNA__0702__B
*1068 ANTENNA__0703__A
*1069 ANTENNA__0706__B
*1070 ANTENNA__0708__A2
*1071 ANTENNA__0716__A1
*1072 ANTENNA__0717__A
*1073 ANTENNA__0720__A
*1074 ANTENNA__0720__B
*1075 ANTENNA__0721__A
*1076 ANTENNA__0722__A
*1077 ANTENNA__0724__B
*1078 ANTENNA__0726__A2
*1079 ANTENNA__0736__A
*1080 ANTENNA__0740__A
*1081 ANTENNA__0741__A
*1082 ANTENNA__0742__A
*1083 ANTENNA__0754__A1
*1084 ANTENNA__0758__A
*1085 ANTENNA__0760__A
*1086 ANTENNA__0761__B
*1087 ANTENNA__0762__B
*1088 ANTENNA__0778__A
*1089 ANTENNA__0778__B
*1090 ANTENNA__0809__X
*1091 ANTENNA__0812__A2
*1092 ANTENNA__0813__B
*1093 ANTENNA__0828__B
*1094 ANTENNA__0829__A2
*1095 ANTENNA__0833__A
*1096 ANTENNA__0839__A
*1097 ANTENNA__0840__A
*1098 ANTENNA__0849__A1
*1099 ANTENNA__0854__A
*1100 ANTENNA__0977__A
*1101 ANTENNA__0977__B
*1102 ANTENNA__0983__A1
*1103 ANTENNA__0985__A1
*1104 ANTENNA__0987__A1
*1105 ANTENNA__0988__A1
*1106 ANTENNA__1015__B1
*1107 ANTENNA__1016__A2
*1108 ANTENNA__1016__B1
*1109 ANTENNA__1021__A2
*1110 ANTENNA__1021__B1
*1111 ANTENNA__1025__B
*1112 ANTENNA__1028__C1
*1113 ANTENNA__1033__B1
*1114 ANTENNA__1043__A2
*1115 ANTENNA__1045__C
*1116 ANTENNA__1054__C1
*1117 ANTENNA__1060__B1
*1118 ANTENNA__1062__C1
*1119 ANTENNA__1063__C
*1120 ANTENNA__1071__B1
*1121 ANTENNA__1078__C1
*1122 ANTENNA__1091__C
*1123 ANTENNA__1099__C1
*1124 ANTENNA__1111__B1
*1125 ANTENNA__1117__C1
*1126 ANTENNA__1123__B1
*1127 ANTENNA__1126__C
*1128 ANTENNA__1129__B1
*1129 ANTENNA__1131__C
*1130 ANTENNA__1144__C
*1131 ANTENNA__1147__B1
*1132 ANTENNA__1149__C1
*1133 ANTENNA__1154__B1
*1134 ANTENNA__1157__C
*1135 ANTENNA__1162__C1
*1136 ANTENNA__1163__C
*1137 ANTENNA__1166__B1
*1138 ANTENNA__1167__C1
*1139 ANTENNA__1168__C
*1140 ANTENNA__1173__C1
*1141 ANTENNA__1174__C
*1142 ANTENNA__1176__B1
*1143 ANTENNA__1177__C1
*1144 ANTENNA__1179__A
*1145 ANTENNA__1182__A
*1146 ANTENNA__1195__C1
*1147 ANTENNA__1224__B
*1148 ANTENNA__1230__C
*1149 ANTENNA__1231__A
*1150 ANTENNA__1234__X
*1151 ANTENNA__1239__A
*1152 ANTENNA__1241__A
*1153 ANTENNA__1246__A
*1154 ANTENNA__1249__A
*1155 ANTENNA__1251__A
*1156 ANTENNA__1254__A
*1157 ANTENNA__1257__A
*1158 ANTENNA__1265__X
*1159 ANTENNA__1266__B
*1160 ANTENNA__1268__B
*1161 ANTENNA__1269__B
*1162 ANTENNA__1272__B
*1163 ANTENNA__1273__B
*1164 ANTENNA__1274__B
*1165 ANTENNA__1276__B
*1166 ANTENNA__1280__Y
*1167 ANTENNA__1281__C
*1168 ANTENNA__1281__X
*1169 ANTENNA__1283__CLK
*1170 ANTENNA__1283__Q
*1171 ANTENNA__1284__CLK
*1172 ANTENNA__1284__RESET_B
*1173 ANTENNA__1285__CLK
*1174 ANTENNA__1286__CLK
*1175 ANTENNA__1287__CLK
*1176 ANTENNA__1288__CLK
*1177 ANTENNA__1288__RESET_B
*1178 ANTENNA__1289__CLK
*1179 ANTENNA__1289__RESET_B
*1180 ANTENNA__1290__CLK
*1181 ANTENNA__1290__RESET_B
*1182 ANTENNA__1291__CLK
*1183 ANTENNA__1291__RESET_B
*1184 ANTENNA__1292__CLK
*1185 ANTENNA__1292__RESET_B
*1186 ANTENNA__1293__CLK
*1187 ANTENNA__1293__RESET_B
*1188 ANTENNA__1294__CLK
*1189 ANTENNA__1294__RESET_B
*1190 ANTENNA__1295__CLK
*1191 ANTENNA__1295__RESET_B
*1192 ANTENNA__1296__CLK
*1193 ANTENNA__1296__RESET_B
*1194 ANTENNA__1297__CLK
*1195 ANTENNA__1297__RESET_B
*1196 ANTENNA__1298__CLK
*1197 ANTENNA__1299__CLK
*1198 ANTENNA__1299__RESET_B
*1199 ANTENNA__1300__CLK
*1200 ANTENNA__1301__CLK
*1201 ANTENNA__1301__RESET_B
*1202 ANTENNA__1302__CLK
*1203 ANTENNA__1302__RESET_B
*1204 ANTENNA__1303__CLK
*1205 ANTENNA__1303__RESET_B
*1206 ANTENNA__1304__CLK
*1207 ANTENNA__1304__RESET_B
*1208 ANTENNA__1305__CLK
*1209 ANTENNA__1305__RESET_B
*1210 ANTENNA__1306__CLK
*1211 ANTENNA__1307__CLK
*1212 ANTENNA__1308__CLK
*1213 ANTENNA__1309__CLK
*1214 ANTENNA__1310__CLK
*1215 ANTENNA__1310__RESET_B
*1216 ANTENNA__1311__CLK
*1217 ANTENNA__1311__RESET_B
*1218 ANTENNA__1312__CLK
*1219 ANTENNA__1312__Q
*1220 ANTENNA__1312__RESET_B
*1221 ANTENNA__1313__CLK
*1222 ANTENNA__1313__RESET_B
*1223 ANTENNA__1314__CLK
*1224 ANTENNA__1314__RESET_B
*1225 ANTENNA__1315__CLK
*1226 ANTENNA__1315__RESET_B
*1227 ANTENNA__1316__CLK
*1228 ANTENNA__1316__RESET_B
*1229 ANTENNA__1317__CLK
*1230 ANTENNA__1317__RESET_B
*1231 ANTENNA__1318__CLK
*1232 ANTENNA__1318__RESET_B
*1233 ANTENNA__1358__A
*1234 ANTENNA__1368__A
*1235 ANTENNA__1371__A
*1236 ANTENNA__1374__A
*1237 ANTENNA__1376__A
*1238 ANTENNA__1380__A
*1239 ANTENNA__1382__A
*1240 ANTENNA__1383__A
*1241 ANTENNA_clkbuf_0_clk_A
*1242 ANTENNA_clkbuf_0_clk_X
*1243 ANTENNA_clkbuf_2_0__f_clk_A
*1244 ANTENNA_clkbuf_2_0__f_clk_X
*1245 ANTENNA_clkbuf_2_1__f_clk_A
*1246 ANTENNA_clkbuf_2_1__f_clk_X
*1247 ANTENNA_clkbuf_2_2__f_clk_A
*1248 ANTENNA_clkbuf_2_2__f_clk_X
*1249 ANTENNA_clkbuf_2_3__f_clk_A
*1250 ANTENNA_clkbuf_2_3__f_clk_X
*1251 ANTENNA_clkload0_A
*1252 ANTENNA_clkload1_A
*1253 ANTENNA_clkload2_A
*1254 ANTENNA_fanout100_A
*1255 ANTENNA_fanout101_X
*1256 ANTENNA_fanout110_A
*1257 ANTENNA_fanout113_A
*1258 ANTENNA_fanout114_A
*1259 ANTENNA_fanout115_A
*1260 ANTENNA_fanout116_A
*1261 ANTENNA_fanout117_A
*1262 ANTENNA_fanout117_X
*1263 ANTENNA_fanout118_X
*1264 ANTENNA_fanout119_A
*1265 ANTENNA_fanout120_A
*1266 ANTENNA_fanout120_X
*1267 ANTENNA_fanout121_A
*1268 ANTENNA_fanout121_X
*1269 ANTENNA_fanout122_A
*1270 ANTENNA_fanout122_X
*1271 ANTENNA_fanout124_A
*1272 ANTENNA_fanout90_X
*1273 ANTENNA_fanout98_A
*1274 ANTENNA_fanout98_X
*1275 ANTENNA_fanout99_A
*1276 ANTENNA_input10_A
*1277 ANTENNA_input11_A
*1278 ANTENNA_input12_A
*1279 ANTENNA_input12_X
*1280 ANTENNA_input13_A
*1281 ANTENNA_input13_X
*1282 ANTENNA_input14_A
*1283 ANTENNA_input14_X
*1284 ANTENNA_input15_A
*1285 ANTENNA_input15_X
*1286 ANTENNA_input16_A
*1287 ANTENNA_input17_A
*1288 ANTENNA_input17_X
*1289 ANTENNA_input18_A
*1290 ANTENNA_input18_X
*1291 ANTENNA_input19_A
*1292 ANTENNA_input19_X
*1293 ANTENNA_input1_A
*1294 ANTENNA_input1_X
*1295 ANTENNA_input20_A
*1296 ANTENNA_input2_A
*1297 ANTENNA_input3_A
*1298 ANTENNA_input4_A
*1299 ANTENNA_input4_X
*1300 ANTENNA_input5_A
*1301 ANTENNA_input6_A
*1302 ANTENNA_input6_X
*1303 ANTENNA_input7_A
*1304 ANTENNA_input7_X
*1305 ANTENNA_input8_A
*1306 ANTENNA_input9_A
*1307 ANTENNA_output21_A
*1308 ANTENNA_output80_A
*1309 ANTENNA_output81_A
*1310 FILLER_0_109
*1311 FILLER_0_113
*1312 FILLER_0_125
*1313 FILLER_0_137
*1314 FILLER_0_141
*1315 FILLER_0_15
*1316 FILLER_0_153
*1317 FILLER_0_165
*1318 FILLER_0_169
*1319 FILLER_0_181
*1320 FILLER_0_193
*1321 FILLER_0_197
*1322 FILLER_0_209
*1323 FILLER_0_217
*1324 FILLER_0_223
*1325 FILLER_0_225
*1326 FILLER_0_237
*1327 FILLER_0_249
*1328 FILLER_0_253
*1329 FILLER_0_265
*1330 FILLER_0_27
*1331 FILLER_0_273
*1332 FILLER_0_279
*1333 FILLER_0_281
*1334 FILLER_0_286
*1335 FILLER_0_29
*1336 FILLER_0_298
*1337 FILLER_0_3
*1338 FILLER_0_306
*1339 FILLER_0_309
*1340 FILLER_0_321
*1341 FILLER_0_328
*1342 FILLER_0_337
*1343 FILLER_0_342
*1344 FILLER_0_354
*1345 FILLER_0_370
*1346 FILLER_0_377
*1347 FILLER_0_384
*1348 FILLER_0_391
*1349 FILLER_0_393
*1350 FILLER_0_401
*1351 FILLER_0_408
*1352 FILLER_0_41
*1353 FILLER_0_413
*1354 FILLER_0_421
*1355 FILLER_0_429
*1356 FILLER_0_433
*1357 FILLER_0_441
*1358 FILLER_0_449
*1359 FILLER_0_455
*1360 FILLER_0_461
*1361 FILLER_0_469
*1362 FILLER_0_475
*1363 FILLER_0_477
*1364 FILLER_0_489
*1365 FILLER_0_501
*1366 FILLER_0_505
*1367 FILLER_0_517
*1368 FILLER_0_529
*1369 FILLER_0_53
*1370 FILLER_0_533
*1371 FILLER_0_545
*1372 FILLER_0_557
*1373 FILLER_0_561
*1374 FILLER_0_57
*1375 FILLER_0_573
*1376 FILLER_0_585
*1377 FILLER_0_589
*1378 FILLER_0_601
*1379 FILLER_0_605
*1380 FILLER_0_69
*1381 FILLER_0_81
*1382 FILLER_0_85
*1383 FILLER_0_97
*1384 FILLER_100_109
*1385 FILLER_100_121
*1386 FILLER_100_133
*1387 FILLER_100_139
*1388 FILLER_100_141
*1389 FILLER_100_15
*1390 FILLER_100_153
*1391 FILLER_100_165
*1392 FILLER_100_177
*1393 FILLER_100_189
*1394 FILLER_100_195
*1395 FILLER_100_197
*1396 FILLER_100_209
*1397 FILLER_100_221
*1398 FILLER_100_233
*1399 FILLER_100_245
*1400 FILLER_100_251
*1401 FILLER_100_253
*1402 FILLER_100_265
*1403 FILLER_100_27
*1404 FILLER_100_277
*1405 FILLER_100_289
*1406 FILLER_100_29
*1407 FILLER_100_295
*1408 FILLER_100_298
*1409 FILLER_100_3
*1410 FILLER_100_306
*1411 FILLER_100_309
*1412 FILLER_100_321
*1413 FILLER_100_333
*1414 FILLER_100_345
*1415 FILLER_100_357
*1416 FILLER_100_363
*1417 FILLER_100_365
*1418 FILLER_100_377
*1419 FILLER_100_389
*1420 FILLER_100_401
*1421 FILLER_100_41
*1422 FILLER_100_413
*1423 FILLER_100_419
*1424 FILLER_100_421
*1425 FILLER_100_433
*1426 FILLER_100_445
*1427 FILLER_100_457
*1428 FILLER_100_469
*1429 FILLER_100_475
*1430 FILLER_100_477
*1431 FILLER_100_489
*1432 FILLER_100_501
*1433 FILLER_100_513
*1434 FILLER_100_525
*1435 FILLER_100_53
*1436 FILLER_100_531
*1437 FILLER_100_533
*1438 FILLER_100_545
*1439 FILLER_100_557
*1440 FILLER_100_569
*1441 FILLER_100_581
*1442 FILLER_100_587
*1443 FILLER_100_589
*1444 FILLER_100_601
*1445 FILLER_100_613
*1446 FILLER_100_65
*1447 FILLER_100_77
*1448 FILLER_100_83
*1449 FILLER_100_85
*1450 FILLER_100_97
*1451 FILLER_101_109
*1452 FILLER_101_113
*1453 FILLER_101_125
*1454 FILLER_101_137
*1455 FILLER_101_141
*1456 FILLER_101_15
*1457 FILLER_101_153
*1458 FILLER_101_160
*1459 FILLER_101_169
*1460 FILLER_101_181
*1461 FILLER_101_193
*1462 FILLER_101_197
*1463 FILLER_101_209
*1464 FILLER_101_221
*1465 FILLER_101_225
*1466 FILLER_101_237
*1467 FILLER_101_249
*1468 FILLER_101_253
*1469 FILLER_101_261
*1470 FILLER_101_265
*1471 FILLER_101_27
*1472 FILLER_101_272
*1473 FILLER_101_281
*1474 FILLER_101_285
*1475 FILLER_101_29
*1476 FILLER_101_296
*1477 FILLER_101_3
*1478 FILLER_101_305
*1479 FILLER_101_315
*1480 FILLER_101_325
*1481 FILLER_101_333
*1482 FILLER_101_347
*1483 FILLER_101_356
*1484 FILLER_101_365
*1485 FILLER_101_373
*1486 FILLER_101_377
*1487 FILLER_101_389
*1488 FILLER_101_393
*1489 FILLER_101_405
*1490 FILLER_101_41
*1491 FILLER_101_417
*1492 FILLER_101_421
*1493 FILLER_101_433
*1494 FILLER_101_442
*1495 FILLER_101_447
*1496 FILLER_101_449
*1497 FILLER_101_461
*1498 FILLER_101_473
*1499 FILLER_101_477
*1500 FILLER_101_485
*1501 FILLER_101_489
*1502 FILLER_101_496
*1503 FILLER_101_505
*1504 FILLER_101_517
*1505 FILLER_101_529
*1506 FILLER_101_53
*1507 FILLER_101_533
*1508 FILLER_101_545
*1509 FILLER_101_557
*1510 FILLER_101_561
*1511 FILLER_101_57
*1512 FILLER_101_573
*1513 FILLER_101_585
*1514 FILLER_101_589
*1515 FILLER_101_601
*1516 FILLER_101_613
*1517 FILLER_101_617
*1518 FILLER_101_69
*1519 FILLER_101_81
*1520 FILLER_101_85
*1521 FILLER_101_97
*1522 FILLER_10_109
*1523 FILLER_10_121
*1524 FILLER_10_133
*1525 FILLER_10_139
*1526 FILLER_10_141
*1527 FILLER_10_15
*1528 FILLER_10_153
*1529 FILLER_10_165
*1530 FILLER_10_177
*1531 FILLER_10_189
*1532 FILLER_10_195
*1533 FILLER_10_197
*1534 FILLER_10_209
*1535 FILLER_10_221
*1536 FILLER_10_233
*1537 FILLER_10_245
*1538 FILLER_10_251
*1539 FILLER_10_253
*1540 FILLER_10_265
*1541 FILLER_10_27
*1542 FILLER_10_277
*1543 FILLER_10_289
*1544 FILLER_10_29
*1545 FILLER_10_3
*1546 FILLER_10_301
*1547 FILLER_10_307
*1548 FILLER_10_309
*1549 FILLER_10_321
*1550 FILLER_10_333
*1551 FILLER_10_345
*1552 FILLER_10_357
*1553 FILLER_10_363
*1554 FILLER_10_365
*1555 FILLER_10_377
*1556 FILLER_10_389
*1557 FILLER_10_401
*1558 FILLER_10_41
*1559 FILLER_10_413
*1560 FILLER_10_419
*1561 FILLER_10_421
*1562 FILLER_10_433
*1563 FILLER_10_445
*1564 FILLER_10_457
*1565 FILLER_10_469
*1566 FILLER_10_475
*1567 FILLER_10_477
*1568 FILLER_10_489
*1569 FILLER_10_501
*1570 FILLER_10_513
*1571 FILLER_10_525
*1572 FILLER_10_53
*1573 FILLER_10_531
*1574 FILLER_10_533
*1575 FILLER_10_545
*1576 FILLER_10_557
*1577 FILLER_10_564
*1578 FILLER_10_584
*1579 FILLER_10_599
*1580 FILLER_10_609
*1581 FILLER_10_623
*1582 FILLER_10_65
*1583 FILLER_10_77
*1584 FILLER_10_83
*1585 FILLER_10_85
*1586 FILLER_10_97
*1587 FILLER_11_105
*1588 FILLER_11_111
*1589 FILLER_11_113
*1590 FILLER_11_125
*1591 FILLER_11_137
*1592 FILLER_11_149
*1593 FILLER_11_15
*1594 FILLER_11_161
*1595 FILLER_11_167
*1596 FILLER_11_169
*1597 FILLER_11_181
*1598 FILLER_11_193
*1599 FILLER_11_205
*1600 FILLER_11_217
*1601 FILLER_11_223
*1602 FILLER_11_225
*1603 FILLER_11_237
*1604 FILLER_11_249
*1605 FILLER_11_261
*1606 FILLER_11_27
*1607 FILLER_11_273
*1608 FILLER_11_279
*1609 FILLER_11_281
*1610 FILLER_11_293
*1611 FILLER_11_3
*1612 FILLER_11_305
*1613 FILLER_11_317
*1614 FILLER_11_329
*1615 FILLER_11_335
*1616 FILLER_11_337
*1617 FILLER_11_349
*1618 FILLER_11_361
*1619 FILLER_11_373
*1620 FILLER_11_385
*1621 FILLER_11_39
*1622 FILLER_11_391
*1623 FILLER_11_393
*1624 FILLER_11_405
*1625 FILLER_11_417
*1626 FILLER_11_429
*1627 FILLER_11_441
*1628 FILLER_11_447
*1629 FILLER_11_449
*1630 FILLER_11_461
*1631 FILLER_11_473
*1632 FILLER_11_485
*1633 FILLER_11_497
*1634 FILLER_11_503
*1635 FILLER_11_505
*1636 FILLER_11_51
*1637 FILLER_11_517
*1638 FILLER_11_529
*1639 FILLER_11_541
*1640 FILLER_11_55
*1641 FILLER_11_553
*1642 FILLER_11_559
*1643 FILLER_11_569
*1644 FILLER_11_57
*1645 FILLER_11_581
*1646 FILLER_11_593
*1647 FILLER_11_602
*1648 FILLER_11_606
*1649 FILLER_11_615
*1650 FILLER_11_624
*1651 FILLER_11_69
*1652 FILLER_11_81
*1653 FILLER_11_93
*1654 FILLER_12_109
*1655 FILLER_12_121
*1656 FILLER_12_133
*1657 FILLER_12_139
*1658 FILLER_12_141
*1659 FILLER_12_15
*1660 FILLER_12_153
*1661 FILLER_12_165
*1662 FILLER_12_177
*1663 FILLER_12_189
*1664 FILLER_12_195
*1665 FILLER_12_197
*1666 FILLER_12_209
*1667 FILLER_12_221
*1668 FILLER_12_233
*1669 FILLER_12_245
*1670 FILLER_12_251
*1671 FILLER_12_253
*1672 FILLER_12_265
*1673 FILLER_12_27
*1674 FILLER_12_277
*1675 FILLER_12_289
*1676 FILLER_12_29
*1677 FILLER_12_3
*1678 FILLER_12_301
*1679 FILLER_12_307
*1680 FILLER_12_309
*1681 FILLER_12_321
*1682 FILLER_12_333
*1683 FILLER_12_345
*1684 FILLER_12_357
*1685 FILLER_12_363
*1686 FILLER_12_365
*1687 FILLER_12_377
*1688 FILLER_12_389
*1689 FILLER_12_401
*1690 FILLER_12_41
*1691 FILLER_12_413
*1692 FILLER_12_419
*1693 FILLER_12_421
*1694 FILLER_12_433
*1695 FILLER_12_445
*1696 FILLER_12_457
*1697 FILLER_12_469
*1698 FILLER_12_475
*1699 FILLER_12_477
*1700 FILLER_12_489
*1701 FILLER_12_501
*1702 FILLER_12_513
*1703 FILLER_12_525
*1704 FILLER_12_53
*1705 FILLER_12_531
*1706 FILLER_12_533
*1707 FILLER_12_545
*1708 FILLER_12_553
*1709 FILLER_12_564
*1710 FILLER_12_569