*SPEF "ieee 1481-1999"
*DESIGN "team_00"
*DATE "21:12:59 Thursday July 17, 2025"
*VENDOR "The OpenROAD Project"
*PROGRAM "OpenROAD"
*VERSION "edf00dff99f6c40d67a30c0e22a8191c5d2ed9d6"
*DESIGN_FLOW "NAME_SCOPE LOCAL" "PIN_CAP NONE"
*DIVIDER /
*DELIMITER :
*BUS_DELIMITER []
*T_UNIT 1 NS
*C_UNIT 1 PF
*R_UNIT 1 OHM
*L_UNIT 1 HENRY

*NAME_MAP
*1 clk
*2 done
*3 en
*4 gpio_in[0]
*5 gpio_in[10]
*6 gpio_in[11]
*7 gpio_in[12]
*8 gpio_in[13]
*9 gpio_in[14]
*10 gpio_in[15]
*11 gpio_in[16]
*12 gpio_in[17]
*13 gpio_in[18]
*14 gpio_in[19]
*15 gpio_in[1]
*16 gpio_in[20]
*17 gpio_in[21]
*18 gpio_in[22]
*19 gpio_in[23]
*20 gpio_in[24]
*21 gpio_in[25]
*22 gpio_in[26]
*23 gpio_in[27]
*24 gpio_in[28]
*25 gpio_in[29]
*26 gpio_in[2]
*27 gpio_in[30]
*28 gpio_in[31]
*29 gpio_in[32]
*30 gpio_in[33]
*31 gpio_in[3]
*32 gpio_in[4]
*33 gpio_in[5]
*34 gpio_in[6]
*35 gpio_in[7]
*36 gpio_in[8]
*37 gpio_in[9]
*38 gpio_oeb[0]
*39 gpio_oeb[10]
*40 gpio_oeb[11]
*41 gpio_oeb[12]
*42 gpio_oeb[13]
*43 gpio_oeb[14]
*44 gpio_oeb[15]
*45 gpio_oeb[16]
*46 gpio_oeb[17]
*47 gpio_oeb[18]
*48 gpio_oeb[19]
*49 gpio_oeb[1]
*50 gpio_oeb[20]
*51 gpio_oeb[21]
*52 gpio_oeb[22]
*53 gpio_oeb[23]
*54 gpio_oeb[24]
*55 gpio_oeb[25]
*56 gpio_oeb[26]
*57 gpio_oeb[27]
*58 gpio_oeb[28]
*59 gpio_oeb[29]
*60 gpio_oeb[2]
*61 gpio_oeb[30]
*62 gpio_oeb[31]
*63 gpio_oeb[32]
*64 gpio_oeb[33]
*65 gpio_oeb[3]
*66 gpio_oeb[4]
*67 gpio_oeb[5]
*68 gpio_oeb[6]
*69 gpio_oeb[7]
*70 gpio_oeb[8]
*71 gpio_oeb[9]
*72 gpio_out[0]
*73 gpio_out[10]
*74 gpio_out[11]
*75 gpio_out[12]
*76 gpio_out[13]
*77 gpio_out[14]
*78 gpio_out[15]
*79 gpio_out[16]
*80 gpio_out[17]
*81 gpio_out[18]
*82 gpio_out[19]
*83 gpio_out[1]
*84 gpio_out[20]
*85 gpio_out[21]
*86 gpio_out[22]
*87 gpio_out[23]
*88 gpio_out[24]
*89 gpio_out[25]
*90 gpio_out[26]
*91 gpio_out[27]
*92 gpio_out[28]
*93 gpio_out[29]
*94 gpio_out[2]
*95 gpio_out[30]
*96 gpio_out[31]
*97 gpio_out[32]
*98 gpio_out[33]
*99 gpio_out[3]
*100 gpio_out[4]
*101 gpio_out[5]
*102 gpio_out[6]
*103 gpio_out[7]
*104 gpio_out[8]
*105 gpio_out[9]
*106 la_data_in[0]
*107 la_data_in[10]
*108 la_data_in[11]
*109 la_data_in[12]
*110 la_data_in[13]
*111 la_data_in[14]
*112 la_data_in[15]
*113 la_data_in[16]
*114 la_data_in[17]
*115 la_data_in[18]
*116 la_data_in[19]
*117 la_data_in[1]
*118 la_data_in[20]
*119 la_data_in[21]
*120 la_data_in[22]
*121 la_data_in[23]
*122 la_data_in[24]
*123 la_data_in[25]
*124 la_data_in[26]
*125 la_data_in[27]
*126 la_data_in[28]
*127 la_data_in[29]
*128 la_data_in[2]
*129 la_data_in[30]
*130 la_data_in[31]
*131 la_data_in[3]
*132 la_data_in[4]
*133 la_data_in[5]
*134 la_data_in[6]
*135 la_data_in[7]
*136 la_data_in[8]
*137 la_data_in[9]
*138 net126
*139 net136
*140 net137
*141 net138
*142 net139
*143 net140
*144 net141
*145 net142
*146 net143
*147 net144
*148 net145
*149 net127
*150 net146
*151 net147
*152 net148
*153 net149
*154 net150
*155 net151
*156 net152
*157 net153
*158 net154
*159 net155
*160 net128
*161 net156
*162 net157
*163 net129
*164 net130
*165 net131
*166 net132
*167 net133
*168 net134
*169 net135
*170 la_oenb[0]
*171 la_oenb[10]
*172 la_oenb[11]
*173 la_oenb[12]
*174 la_oenb[13]
*175 la_oenb[14]
*176 la_oenb[15]
*177 la_oenb[16]
*178 la_oenb[17]
*179 la_oenb[18]
*180 la_oenb[19]
*181 la_oenb[1]
*182 la_oenb[20]
*183 la_oenb[21]
*184 la_oenb[22]
*185 la_oenb[23]
*186 la_oenb[24]
*187 la_oenb[25]
*188 la_oenb[26]
*189 la_oenb[27]
*190 la_oenb[28]
*191 la_oenb[29]
*192 la_oenb[2]
*193 la_oenb[30]
*194 la_oenb[31]
*195 la_oenb[3]
*196 la_oenb[4]
*197 la_oenb[5]
*198 la_oenb[6]
*199 la_oenb[7]
*200 la_oenb[8]
*201 la_oenb[9]
*202 nrst
*203 prescaler[0]
*204 prescaler[10]
*205 prescaler[11]
*206 prescaler[12]
*207 prescaler[13]
*208 prescaler[1]
*209 prescaler[2]
*210 prescaler[3]
*211 prescaler[4]
*212 prescaler[5]
*213 prescaler[6]
*214 prescaler[7]
*215 prescaler[8]
*216 prescaler[9]
*219 _0000_
*220 _0001_
*221 _0002_
*222 _0003_
*223 _0004_
*224 _0005_
*225 _0006_
*226 _0007_
*227 _0008_
*228 _0009_
*229 _0010_
*230 _0011_
*231 _0012_
*232 _0013_
*233 _0014_
*234 _0015_
*235 _0016_
*236 _0017_
*237 _0018_
*238 _0019_
*239 _0020_
*240 _0021_
*241 _0022_
*242 _0023_
*243 _0024_
*244 _0025_
*245 _0026_
*246 _0027_
*247 _0028_
*248 _0029_
*249 _0030_
*250 _0031_
*251 _0032_
*252 _0033_
*253 _0034_
*254 _0035_
*255 _0036_
*256 _0037_
*257 _0038_
*258 _0039_
*259 _0040_
*260 _0041_
*261 _0042_
*262 _0043_
*263 _0044_
*264 _0045_
*265 _0046_
*266 _0047_
*267 _0048_
*268 _0049_
*269 _0050_
*270 _0051_
*271 _0052_
*272 _0053_
*273 _0054_
*274 _0055_
*275 _0056_
*276 _0057_
*277 _0058_
*278 _0059_
*279 _0060_
*280 _0061_
*281 _0062_
*282 _0063_
*283 _0064_
*284 _0065_
*285 _0066_
*286 _0067_
*287 _0068_
*288 _0069_
*289 _0070_
*290 _0071_
*291 _0072_
*292 _0073_
*293 _0074_
*294 _0075_
*295 _0076_
*296 _0077_
*297 _0078_
*298 _0079_
*299 _0080_
*300 _0081_
*301 _0082_
*302 _0083_
*303 _0084_
*304 _0085_
*305 _0086_
*306 _0087_
*307 _0088_
*308 _0089_
*309 _0090_
*310 _0091_
*311 _0092_
*312 _0093_
*313 _0094_
*314 _0095_
*315 _0096_
*316 _0097_
*317 _0098_
*318 _0099_
*319 _0100_
*320 _0101_
*321 _0102_
*322 _0103_
*323 _0104_
*324 _0105_
*325 _0106_
*326 _0107_
*327 _0108_
*328 _0109_
*329 _0110_
*330 _0111_
*331 _0112_
*332 _0113_
*333 _0114_
*334 _0115_
*335 _0116_
*336 _0117_
*337 _0118_
*338 _0119_
*339 _0120_
*340 _0121_
*341 _0122_
*342 _0123_
*343 _0124_
*344 _0125_
*345 _0126_
*346 _0127_
*347 _0128_
*348 _0129_
*349 _0130_
*350 _0131_
*351 _0132_
*352 _0133_
*353 _0134_
*354 _0135_
*355 _0136_
*356 _0137_
*357 _0138_
*358 _0139_
*359 _0140_
*360 _0141_
*361 _0142_
*362 _0143_
*363 _0144_
*364 _0145_
*365 _0146_
*366 _0147_
*367 _0148_
*368 _0149_
*369 _0150_
*370 _0151_
*371 _0152_
*372 _0153_
*373 _0154_
*374 _0155_
*375 _0156_
*376 _0157_
*377 _0158_
*378 _0159_
*379 _0160_
*380 _0161_
*381 _0162_
*382 _0163_
*383 _0164_
*384 _0165_
*385 _0166_
*386 _0167_
*387 _0168_
*388 _0169_
*389 _0170_
*390 _0171_
*391 _0172_
*392 _0173_
*393 _0174_
*394 _0175_
*395 _0176_
*396 _0177_
*397 _0178_
*398 _0179_
*399 _0180_
*400 _0181_
*401 _0182_
*402 _0183_
*403 _0184_
*404 _0185_
*405 _0186_
*406 _0187_
*407 _0188_
*408 _0189_
*409 _0190_
*410 _0191_
*411 _0192_
*412 _0193_
*413 _0194_
*414 _0195_
*415 _0196_
*416 _0197_
*417 _0198_
*418 _0199_
*419 _0200_
*420 _0201_
*421 _0202_
*422 _0203_
*423 _0204_
*424 _0205_
*425 _0206_
*426 _0207_
*427 _0208_
*428 _0209_
*429 _0210_
*430 _0211_
*431 _0212_
*432 _0213_
*433 _0214_
*434 _0215_
*435 _0216_
*436 _0217_
*437 _0218_
*438 _0219_
*439 _0220_
*440 _0221_
*441 _0222_
*442 _0223_
*443 _0224_
*444 _0225_
*445 _0226_
*446 _0227_
*447 _0228_
*448 _0229_
*449 _0230_
*450 _0231_
*451 _0232_
*452 _0233_
*453 _0234_
*454 _0235_
*455 _0236_
*456 _0237_
*457 _0238_
*458 _0239_
*459 _0240_
*460 _0241_
*461 _0242_
*462 _0243_
*463 _0244_
*464 _0245_
*465 _0246_
*466 _0247_
*467 _0248_
*468 _0249_
*469 _0250_
*470 _0251_
*471 _0252_
*472 _0253_
*473 _0254_
*474 _0255_
*475 _0256_
*476 _0257_
*477 _0258_
*478 _0259_
*479 _0260_
*480 _0261_
*481 _0262_
*482 _0263_
*483 _0264_
*484 _0265_
*485 _0266_
*486 _0267_
*487 _0268_
*488 _0269_
*489 _0270_
*490 _0271_
*491 _0272_
*492 _0273_
*493 _0274_
*494 _0275_
*495 _0276_
*496 _0277_
*497 _0278_
*498 _0279_
*499 _0280_
*500 _0281_
*501 _0282_
*502 _0283_
*503 _0284_
*504 _0285_
*505 _0286_
*506 _0287_
*507 _0288_
*508 _0289_
*509 _0290_
*510 _0291_
*511 _0292_
*512 _0293_
*513 _0294_
*514 _0295_
*515 _0296_
*516 _0297_
*517 _0298_
*518 _0299_
*519 _0300_
*520 _0301_
*521 _0302_
*522 _0303_
*523 _0304_
*524 _0305_
*525 _0306_
*526 _0307_
*527 _0308_
*528 _0309_
*529 _0310_
*530 _0311_
*531 _0312_
*532 _0313_
*533 _0314_
*534 _0315_
*535 _0316_
*536 _0317_
*537 _0318_
*538 _0319_
*539 _0320_
*540 _0321_
*541 _0322_
*542 _0323_
*543 _0324_
*544 _0325_
*545 _0326_
*546 _0327_
*547 _0328_
*548 _0329_
*549 _0330_
*550 _0331_
*551 _0332_
*552 _0333_
*553 _0334_
*554 _0335_
*555 _0336_
*556 _0337_
*557 _0338_
*558 _0339_
*559 _0340_
*560 _0341_
*561 _0342_
*562 _0343_
*563 _0344_
*564 _0345_
*565 _0346_
*566 _0347_
*567 _0348_
*568 _0349_
*569 _0350_
*570 _0351_
*571 _0352_
*572 _0353_
*573 _0354_
*574 _0355_
*575 _0356_
*576 _0357_
*577 _0358_
*578 _0359_
*579 _0360_
*580 _0361_
*581 _0362_
*582 _0363_
*583 _0364_
*584 _0365_
*585 _0366_
*586 _0367_
*587 _0368_
*588 _0369_
*589 _0370_
*590 _0371_
*591 _0372_
*592 _0373_
*593 _0374_
*594 _0375_
*595 _0376_
*596 _0377_
*597 _0378_
*598 _0379_
*599 _0380_
*600 _0381_
*601 _0382_
*602 _0383_
*603 _0384_
*604 _0385_
*605 _0386_
*606 _0387_
*607 _0388_
*608 _0389_
*609 _0390_
*610 _0391_
*611 _0392_
*612 _0393_
*613 _0394_
*614 _0395_
*615 _0396_
*616 _0397_
*617 _0398_
*618 _0399_
*619 _0400_
*620 _0401_
*621 _0402_
*622 _0403_
*623 _0404_
*624 _0405_
*625 _0406_
*626 _0407_
*627 _0408_
*628 _0409_
*629 _0410_
*630 _0411_
*631 _0412_
*632 _0413_
*633 _0414_
*634 _0415_
*635 _0416_
*636 _0417_
*637 _0418_
*638 _0419_
*639 _0420_
*640 _0421_
*641 _0422_
*642 _0423_
*643 _0424_
*644 _0425_
*645 _0426_
*646 _0427_
*647 _0428_
*648 _0429_
*649 _0430_
*650 _0431_
*651 _0432_
*652 _0433_
*653 _0434_
*654 _0435_
*655 _0436_
*656 _0437_
*657 _0438_
*658 _0439_
*659 _0440_
*660 _0441_
*661 _0442_
*662 _0443_
*663 _0444_
*664 _0445_
*665 _0446_
*666 _0447_
*667 _0448_
*668 _0449_
*669 _0450_
*670 _0451_
*671 _0452_
*672 _0453_
*673 _0454_
*674 _0455_
*675 _0456_
*676 _0457_
*677 _0458_
*678 _0459_
*679 _0460_
*680 _0461_
*681 _0462_
*682 _0463_
*683 _0464_
*684 _0465_
*685 _0466_
*686 _0467_
*687 _0468_
*688 _0469_
*689 _0470_
*690 _0471_
*691 _0472_
*692 _0473_
*693 _0474_
*694 _0475_
*695 _0476_
*696 _0477_
*697 _0478_
*698 _0479_
*699 _0480_
*700 _0481_
*701 _0482_
*702 _0483_
*703 _0484_
*704 _0485_
*705 _0486_
*706 _0487_
*707 _0488_
*708 _0489_
*709 _0490_
*710 _0491_
*711 _0492_
*712 _0493_
*713 _0494_
*714 _0495_
*715 _0496_
*716 _0497_
*717 _0498_
*718 _0499_
*719 _0500_
*720 _0501_
*721 _0502_
*722 _0503_
*723 _0504_
*724 _0505_
*725 _0506_
*726 _0507_
*727 _0508_
*728 _0509_
*729 _0510_
*730 _0511_
*731 _0512_
*732 _0513_
*733 _0514_
*734 _0515_
*735 _0516_
*736 _0517_
*737 _0518_
*738 _0519_
*739 _0520_
*740 _0521_
*741 _0522_
*742 _0523_
*743 _0524_
*744 _0525_
*745 _0526_
*746 _0527_
*747 _0528_
*748 _0529_
*749 _0530_
*750 _0531_
*751 _0532_
*752 _0533_
*753 _0534_
*754 _0535_
*755 _0536_
*756 _0537_
*757 _0538_
*758 _0539_
*759 _0540_
*760 _0541_
*761 _0542_
*762 _0543_
*763 _0544_
*764 _0545_
*765 _0546_
*766 _0547_
*767 _0548_
*768 _0549_
*769 _0550_
*770 _0551_
*771 _0552_
*772 _0553_
*773 _0554_
*774 _0555_
*775 _0556_
*776 _0557_
*777 _0558_
*778 _0559_
*779 _0560_
*780 _0561_
*781 _0562_
*782 _0563_
*783 _0564_
*784 _0565_
*785 _0566_
*786 _0567_
*787 _0568_
*788 _0569_
*789 _0570_
*790 _0571_
*791 _0572_
*792 _0573_
*793 _0574_
*794 _0575_
*795 _0576_
*796 _0577_
*797 _0578_
*798 _0579_
*799 _0580_
*800 _0581_
*801 _0582_
*802 _0583_
*803 _0584_
*804 _0585_
*805 _0586_
*806 _0587_
*807 _0588_
*808 _0589_
*809 _0590_
*810 _0591_
*811 _0592_
*812 _0593_
*813 _0594_
*814 _0595_
*815 _0596_
*816 _0597_
*817 _0598_
*818 _0599_
*819 _0600_
*820 _0601_
*821 _0602_
*822 _0603_
*823 _0604_
*824 _0605_
*825 clk_divider\.count_out\[0\]
*826 clk_divider\.count_out\[10\]
*827 clk_divider\.count_out\[11\]
*828 clk_divider\.count_out\[12\]
*829 clk_divider\.count_out\[13\]
*830 clk_divider\.count_out\[14\]
*831 clk_divider\.count_out\[15\]
*832 clk_divider\.count_out\[16\]
*833 clk_divider\.count_out\[17\]
*834 clk_divider\.count_out\[18\]
*835 clk_divider\.count_out\[19\]
*836 clk_divider\.count_out\[1\]
*837 clk_divider\.count_out\[20\]
*838 clk_divider\.count_out\[21\]
*839 clk_divider\.count_out\[22\]
*840 clk_divider\.count_out\[23\]
*841 clk_divider\.count_out\[24\]
*842 clk_divider\.count_out\[25\]
*843 clk_divider\.count_out\[26\]
*844 clk_divider\.count_out\[27\]
*845 clk_divider\.count_out\[2\]
*846 clk_divider\.count_out\[3\]
*847 clk_divider\.count_out\[4\]
*848 clk_divider\.count_out\[5\]
*849 clk_divider\.count_out\[6\]
*850 clk_divider\.count_out\[7\]
*851 clk_divider\.count_out\[8\]
*852 clk_divider\.count_out\[9\]
*853 clk_divider\.next_count\[0\]
*854 clk_divider\.next_count\[10\]
*855 clk_divider\.next_count\[11\]
*856 clk_divider\.next_count\[12\]
*857 clk_divider\.next_count\[13\]
*858 clk_divider\.next_count\[14\]
*859 clk_divider\.next_count\[15\]
*860 clk_divider\.next_count\[16\]
*861 clk_divider\.next_count\[17\]
*862 clk_divider\.next_count\[18\]
*863 clk_divider\.next_count\[19\]
*864 clk_divider\.next_count\[1\]
*865 clk_divider\.next_count\[20\]
*866 clk_divider\.next_count\[21\]
*867 clk_divider\.next_count\[22\]
*868 clk_divider\.next_count\[23\]
*869 clk_divider\.next_count\[24\]
*870 clk_divider\.next_count\[25\]
*871 clk_divider\.next_count\[26\]
*872 clk_divider\.next_count\[27\]
*873 clk_divider\.next_count\[2\]
*874 clk_divider\.next_count\[3\]
*875 clk_divider\.next_count\[4\]
*876 clk_divider\.next_count\[5\]
*877 clk_divider\.next_count\[6\]
*878 clk_divider\.next_count\[7\]
*879 clk_divider\.next_count\[8\]
*880 clk_divider\.next_count\[9\]
*881 clk_divider\.next_flag
*882 clk_divider\.rollover_flag
*883 clknet_0_clk
*884 clknet_2_0__leaf_clk
*885 clknet_2_1__leaf_clk
*886 clknet_2_2__leaf_clk
*887 clknet_2_3__leaf_clk
*888 count\[0\]
*889 count\[1\]
*890 count\[2\]
*891 count\[3\]
*892 count\[4\]
*893 count\[5\]
*894 counter_to_35\.next_count\[0\]
*895 counter_to_35\.next_count\[1\]
*896 counter_to_35\.next_count\[2\]
*897 counter_to_35\.next_count\[3\]
*898 counter_to_35\.next_count\[4\]
*899 counter_to_35\.next_count\[5\]
*900 counter_to_35\.next_flag
*901 net1
*902 net10
*903 net100
*904 net101
*905 net102
*906 net103
*907 net104
*908 net105
*909 net106
*910 net107
*911 net108
*912 net109
*913 net11
*914 net110
*915 net111
*916 net112
*917 net113
*918 net114
*919 net115
*920 net116
*921 net117
*922 net118
*923 net119
*924 net12
*925 net120
*926 net121
*927 net122
*928 net123
*929 net124
*930 net125
*931 net13
*932 net14
*933 net15
*934 net16
*935 net17
*936 net18
*937 net19
*938 net2
*939 net20
*940 net21
*941 net22
*942 net23
*943 net24
*944 net25
*945 net26
*946 net27
*947 net28
*948 net29
*949 net3
*950 net30
*951 net31
*952 net32
*953 net33
*954 net34
*955 net35
*956 net36
*957 net37
*958 net38
*959 net39
*960 net4
*961 net40
*962 net41
*963 net42
*964 net43
*965 net44
*966 net45
*967 net46
*968 net47
*969 net48
*970 net49
*971 net5
*972 net50
*973 net51
*974 net52
*975 net53
*976 net54
*977 net55
*978 net56
*979 net57
*980 net58
*981 net59
*982 net6
*983 net60
*984 net61
*985 net62
*986 net63
*987 net64
*988 net65
*989 net66
*990 net67
*991 net68
*992 net69
*993 net7
*994 net70
*995 net71
*996 net72
*997 net73
*998 net74
*999 net75
*1000 net76
*1001 net77
*1002 net78
*1003 net79
*1004 net8
*1005 net80
*1006 net81
*1007 net82
*1008 net83
*1009 net84
*1010 net85
*1011 net86
*1012 net87
*1013 net88
*1014 net89
*1015 net9
*1016 net90
*1017 net91
*1018 net92
*1019 net93
*1020 net94
*1021 net95
*1022 net96
*1023 net97
*1024 net98
*1025 net99
*1026 ANTENNA__0608__Y
*1027 ANTENNA__0610__A
*1028 ANTENNA__0614__A
*1029 ANTENNA__0615__Y
*1030 ANTENNA__0616__A
*1031 ANTENNA__0617__A
*1032 ANTENNA__0617__Y
*1033 ANTENNA__0618__A
*1034 ANTENNA__0618__Y
*1035 ANTENNA__0619__A
*1036 ANTENNA__0620__A
*1037 ANTENNA__0646__X
*1038 ANTENNA__0647__B
*1039 ANTENNA__0648__A
*1040 ANTENNA__0649__A
*1041 ANTENNA__0651__B
*1042 ANTENNA__0652__A
*1043 ANTENNA__0653__A
*1044 ANTENNA__0658__B
*1045 ANTENNA__0661__A
*1046 ANTENNA__0662__A
*1047 ANTENNA__0668__A2
*1048 ANTENNA__0669__A2
*1049 ANTENNA__0672__A
*1050 ANTENNA__0681__A
*1051 ANTENNA__0683__A
*1052 ANTENNA__0684__B
*1053 ANTENNA__0686__A
*1054 ANTENNA__0688__A
*1055 ANTENNA__0688__B
*1056 ANTENNA__0690__A1
*1057 ANTENNA__0690__A2
*1058 ANTENNA__0693__A1
*1059 ANTENNA__0697__A1
*1060 ANTENNA__0700__A
*1061 ANTENNA__0700__B
*1062 ANTENNA__0701__B
*1063 ANTENNA__0702__A
*1064 ANTENNA__0702__B
*1065 ANTENNA__0706__B
*1066 ANTENNA__0708__A2
*1067 ANTENNA__0712__A2
*1068 ANTENNA__0716__A1
*1069 ANTENNA__0717__A
*1070 ANTENNA__0719__A
*1071 ANTENNA__0719__B
*1072 ANTENNA__0720__A
*1073 ANTENNA__0720__B
*1074 ANTENNA__0724__A
*1075 ANTENNA__0724__B
*1076 ANTENNA__0726__A1
*1077 ANTENNA__0726__A2
*1078 ANTENNA__0730__A1
*1079 ANTENNA__0730__A2
*1080 ANTENNA__0734__A
*1081 ANTENNA__0736__A
*1082 ANTENNA__0739__A
*1083 ANTENNA__0740__A
*1084 ANTENNA__0740__B
*1085 ANTENNA__0741__A
*1086 ANTENNA__0744__A
*1087 ANTENNA__0744__B
*1088 ANTENNA__0746__A1
*1089 ANTENNA__0746__A2
*1090 ANTENNA__0750__A1
*1091 ANTENNA__0754__A1
*1092 ANTENNA__0755__A
*1093 ANTENNA__0758__A
*1094 ANTENNA__0760__A
*1095 ANTENNA__0761__A
*1096 ANTENNA__0761__B
*1097 ANTENNA__0762__B
*1098 ANTENNA__0763__A
*1099 ANTENNA__0765__A
*1100 ANTENNA__0776__B1
*1101 ANTENNA__0778__A
*1102 ANTENNA__0778__B
*1103 ANTENNA__0789__Y
*1104 ANTENNA__0790__Y
*1105 ANTENNA__0792__Y
*1106 ANTENNA__0793__A
*1107 ANTENNA__0794__Y
*1108 ANTENNA__0796__X
*1109 ANTENNA__0798__Y
*1110 ANTENNA__0799__A
*1111 ANTENNA__0801__X
*1112 ANTENNA__0803__Y
*1113 ANTENNA__0805__X
*1114 ANTENNA__0806__A
*1115 ANTENNA__0806__D
*1116 ANTENNA__0807__A
*1117 ANTENNA__0807__B
*1118 ANTENNA__0807__C
*1119 ANTENNA__0808__A
*1120 ANTENNA__0808__B
*1121 ANTENNA__0808__X
*1122 ANTENNA__0809__A_N
*1123 ANTENNA__0809__B
*1124 ANTENNA__0809__C
*1125 ANTENNA__0809__D
*1126 ANTENNA__0810__A
*1127 ANTENNA__0810__B
*1128 ANTENNA__0814__A
*1129 ANTENNA__0815__A1
*1130 ANTENNA__0816__A
*1131 ANTENNA__0823__A1
*1132 ANTENNA__0823__B1
*1133 ANTENNA__0824__A
*1134 ANTENNA__0824__B
*1135 ANTENNA__0833__A
*1136 ANTENNA__0836__A
*1137 ANTENNA__0849__A1
*1138 ANTENNA__0854__A
*1139 ANTENNA__0866__A2
*1140 ANTENNA__0866__B1_N
*1141 ANTENNA__0867__A
*1142 ANTENNA__0877__A
*1143 ANTENNA__0878__A
*1144 ANTENNA__0878__B
*1145 ANTENNA__0879__A
*1146 ANTENNA__0880__A
*1147 ANTENNA__0881__B1
*1148 ANTENNA__0882__B
*1149 ANTENNA__0882__C_N
*1150 ANTENNA__0883__A_N
*1151 ANTENNA__0883__B
*1152 ANTENNA__0883__C
*1153 ANTENNA__0903__A
*1154 ANTENNA__0903__C_N
*1155 ANTENNA__0908__B1
*1156 ANTENNA__0910__A1
*1157 ANTENNA__0917__A1
*1158 ANTENNA__0928__Y
*1159 ANTENNA__0929__B1
*1160 ANTENNA__0930__A
*1161 ANTENNA__0940__X
*1162 ANTENNA__0941__A
*1163 ANTENNA__0941__B
*1164 ANTENNA__0942__A
*1165 ANTENNA__0942__B
*1166 ANTENNA__0951__A
*1167 ANTENNA__0951__B
*1168 ANTENNA__0954__X
*1169 ANTENNA__0957__Y
*1170 ANTENNA__0958__B
*1171 ANTENNA__0959__B
*1172 ANTENNA__0960__Y
*1173 ANTENNA__0961__B
*1174 ANTENNA__0963__B
*1175 ANTENNA__0964__B
*1176 ANTENNA__0965__B
*1177 ANTENNA__0967__B
*1178 ANTENNA__0968__B
*1179 ANTENNA__0969__B
*1180 ANTENNA__0970__B
*1181 ANTENNA__0972__B
*1182 ANTENNA__0973__B
*1183 ANTENNA__0974__B
*1184 ANTENNA__0975__B
*1185 ANTENNA__0977__A
*1186 ANTENNA__0977__B
*1187 ANTENNA__0979__A2
*1188 ANTENNA__0982__A
*1189 ANTENNA__0983__A1
*1190 ANTENNA__0984__A
*1191 ANTENNA__0985__A1
*1192 ANTENNA__0986__B1
*1193 ANTENNA__0987__A1
*1194 ANTENNA__0988__A1
*1195 ANTENNA__0990__B
*1196 ANTENNA__0991__B
*1197 ANTENNA__0992__A2
*1198 ANTENNA__0993__A2
*1199 ANTENNA__0993__B1
*1200 ANTENNA__0995__A2
*1201 ANTENNA__1000__B
*1202 ANTENNA__1001__B
*1203 ANTENNA__1004__A1
*1204 ANTENNA__1005__A1
*1205 ANTENNA__1006__X
*1206 ANTENNA__1007__C1
*1207 ANTENNA__1012__A
*1208 ANTENNA__1013__A
*1209 ANTENNA__1014__Y
*1210 ANTENNA__1015__A3
*1211 ANTENNA__1016__A2
*1212 ANTENNA__1027__X
*1213 ANTENNA__1039__B
*1214 ANTENNA__1040__B
*1215 ANTENNA__1041__B
*1216 ANTENNA__1046__C
*1217 ANTENNA__1047__A2
*1218 ANTENNA__1054__A2
*1219 ANTENNA__1054__C1
*1220 ANTENNA__1057__C
*1221 ANTENNA__1060__B1
*1222 ANTENNA__1068__B
*1223 ANTENNA__1068__C
*1224 ANTENNA__1071__B1
*1225 ANTENNA__1073__B
*1226 ANTENNA__1073__C
*1227 ANTENNA__1076__A1
*1228 ANTENNA__1079__C
*1229 ANTENNA__1083__X
*1230 ANTENNA__1091__C
*1231 ANTENNA__1099__A2
*1232 ANTENNA__1099__C1
*1233 ANTENNA__1101__C
*1234 ANTENNA__1117__A2
*1235 ANTENNA__1117__C1
*1236 ANTENNA__1119__B
*1237 ANTENNA__1122__A1
*1238 ANTENNA__1126__C
*1239 ANTENNA__1129__B1
*1240 ANTENNA__1131__A
*1241 ANTENNA__1132__A
*1242 ANTENNA__1133__B1
*1243 ANTENNA__1135__A
*1244 ANTENNA__1137__B
*1245 ANTENNA__1147__B1
*1246 ANTENNA__1150__C_N
*1247 ANTENNA__1151__A
*1248 ANTENNA__1152__B1
*1249 ANTENNA__1153__X
*1250 ANTENNA__1154__A1
*1251 ANTENNA__1155__A2
*1252 ANTENNA__1161__B
*1253 ANTENNA__1163__C
*1254 ANTENNA__1166__B1
*1255 ANTENNA__1167__A2
*1256 ANTENNA__1168__C
*1257 ANTENNA__1171__B1
*1258 ANTENNA__1176__B1
*1259 ANTENNA__1178__A
*1260 ANTENNA__1179__A
*1261 ANTENNA__1180__A
*1262 ANTENNA__1183__A1
*1263 ANTENNA__1184__A
*1264 ANTENNA__1186__A1
*1265 ANTENNA__1187__A1
*1266 ANTENNA__1192__A1
*1267 ANTENNA__1192__A2
*1268 ANTENNA__1193__B2
*1269 ANTENNA__1194__A
*1270 ANTENNA__1195__C1
*1271 ANTENNA__1196__A
*1272 ANTENNA__1197__A1
*1273 ANTENNA__1199__A
*1274 ANTENNA__1199__B
*1275 ANTENNA__1202__A1
*1276 ANTENNA__1203__A1
*1277 ANTENNA__1208__A1
*1278 ANTENNA__1209__A
*1279 ANTENNA__1210__B1
*1280 ANTENNA__1214__X
*1281 ANTENNA__1215__A1
*1282 ANTENNA__1215__C1
*1283 ANTENNA__1216__B2
*1284 ANTENNA__1217__A1
*1285 ANTENNA__1217__B2
*1286 ANTENNA__1241__Y
*1287 ANTENNA__1251__Y
*1288 ANTENNA__1257__Y
*1289 ANTENNA__1268__Y
*1290 ANTENNA__1269__Y
*1291 ANTENNA__1274__Y
*1292 ANTENNA__1288__CLK
*1293 ANTENNA__1288__RESET_B
*1294 ANTENNA__1289__CLK
*1295 ANTENNA__1289__RESET_B
*1296 ANTENNA__1290__CLK
*1297 ANTENNA__1290__RESET_B
*1298 ANTENNA__1291__CLK
*1299 ANTENNA__1291__RESET_B
*1300 ANTENNA__1292__CLK
*1301 ANTENNA__1292__RESET_B
*1302 ANTENNA__1293__CLK
*1303 ANTENNA__1293__RESET_B
*1304 ANTENNA__1294__CLK
*1305 ANTENNA__1294__RESET_B
*1306 ANTENNA__1295__D
*1307 ANTENNA__1302__CLK
*1308 ANTENNA__1302__RESET_B
*1309 ANTENNA__1303__CLK
*1310 ANTENNA__1303__RESET_B
*1311 ANTENNA__1304__CLK
*1312 ANTENNA__1304__Q
*1313 ANTENNA__1304__RESET_B
*1314 ANTENNA__1305__CLK
*1315 ANTENNA__1306__CLK
*1316 ANTENNA__1307__Q
*1317 ANTENNA__1308__CLK
*1318 ANTENNA__1309__CLK
*1319 ANTENNA__1310__CLK
*1320 ANTENNA__1311__CLK
*1321 ANTENNA__1351__A
*1322 ANTENNA_clkbuf_0_clk_A
*1323 ANTENNA_clkbuf_0_clk_X
*1324 ANTENNA_clkbuf_2_0__f_clk_A
*1325 ANTENNA_clkbuf_2_1__f_clk_A
*1326 ANTENNA_clkbuf_2_2__f_clk_A
*1327 ANTENNA_clkbuf_2_2__f_clk_X
*1328 ANTENNA_clkbuf_2_3__f_clk_A
*1329 ANTENNA_clkbuf_2_3__f_clk_X
*1330 ANTENNA_clkload1_A
*1331 ANTENNA_clkload2_A
*1332 ANTENNA_fanout111_A
*1333 ANTENNA_fanout113_A
*1334 ANTENNA_fanout114_X
*1335 ANTENNA_fanout117_A
*1336 ANTENNA_fanout118_A
*1337 ANTENNA_fanout119_A
*1338 ANTENNA_fanout120_A
*1339 ANTENNA_fanout121_A
*1340 ANTENNA_fanout121_X
*1341 ANTENNA_fanout122_A
*1342 ANTENNA_fanout124_X
*1343 ANTENNA_fanout125_X
*1344 ANTENNA_fanout90_X
*1345 ANTENNA_fanout92_A
*1346 ANTENNA_fanout94_A
*1347 ANTENNA_fanout95_X
*1348 ANTENNA_input10_A
*1349 ANTENNA_input11_A
*1350 ANTENNA_input11_X
*1351 ANTENNA_input12_A
*1352 ANTENNA_input13_A
*1353 ANTENNA_input13_X
*1354 ANTENNA_input14_A
*1355 ANTENNA_input14_X
*1356 ANTENNA_input15_A
*1357 ANTENNA_input15_X
*1358 ANTENNA_input16_A
*1359 ANTENNA_input17_A
*1360 ANTENNA_input17_X
*1361 ANTENNA_input18_A
*1362 ANTENNA_input19_A
*1363 ANTENNA_input1_A
*1364 ANTENNA_input20_A
*1365 ANTENNA_input2_A
*1366 ANTENNA_input3_A
*1367 ANTENNA_input4_A
*1368 ANTENNA_input5_A
*1369 ANTENNA_input6_A
*1370 ANTENNA_input6_X
*1371 ANTENNA_input7_A
*1372 ANTENNA_input7_X
*1373 ANTENNA_input8_A
*1374 ANTENNA_input8_X
*1375 ANTENNA_input9_A
*1376 ANTENNA_input9_X
*1377 ANTENNA_output58_A
*1378 ANTENNA_output66_A
*1379 ANTENNA_output68_A
*1380 ANTENNA_output73_A
*1381 ANTENNA_output84_A
*1382 ANTENNA_output89_A
*1383 FILLER_0_16
*1384 FILLER_0_35
*1385 FILLER_0_57
*1386 FILLER_100_11
*1387 FILLER_100_17
*1388 FILLER_100_25
*1389 FILLER_100_39
*1390 FILLER_100_58
*1391 FILLER_101_10
*1392 FILLER_102_16
*1393 FILLER_102_29
*1394 FILLER_102_5
*1395 FILLER_102_9
*1396 FILLER_103_11
*1397 FILLER_103_15
*1398 FILLER_103_30
*1399 FILLER_103_38
*1400 FILLER_104_12
*1401 FILLER_104_16
*1402 FILLER_104_22
*1403 FILLER_104_27
*1404 FILLER_105_13
*1405 FILLER_105_3
*1406 FILLER_106_15
*1407 FILLER_106_27
*1408 FILLER_106_6
*1409 FILLER_107_12
*1410 FILLER_107_16
*1411 FILLER_107_22
*1412 FILLER_107_3
*1413 FILLER_107_47
*1414 FILLER_107_60
*1415 FILLER_107_9
*1416 FILLER_108_21
*1417 FILLER_108_61
*1418 FILLER_109_17
*1419 FILLER_109_31
*1420 FILLER_10_47
*1421 FILLER_10_61
*1422 FILLER_110_10
*1423 FILLER_110_15
*1424 FILLER_110_24
*1425 FILLER_110_29
*1426 FILLER_110_3
*1427 FILLER_110_35
*1428 FILLER_110_41
*1429 FILLER_111_15
*1430 FILLER_111_21
*1431 FILLER_111_29
*1432 FILLER_111_3
*1433 FILLER_111_57
*1434 FILLER_112_29
*1435 FILLER_112_58
*1436 FILLER_113_57
*1437 FILLER_113_61
*1438 FILLER_114_15
*1439 FILLER_114_20
*1440 FILLER_114_29
*1441 FILLER_114_43
*1442 FILLER_114_5
*1443 FILLER_115_16
*1444 FILLER_115_22
*1445 FILLER_115_28
*1446 FILLER_115_42
*1447 FILLER_115_8
*1448 FILLER_116_3
*1449 FILLER_116_55
*1450 FILLER_116_61
*1451 FILLER_118_25
*1452 FILLER_119_30
*1453 FILLER_119_60
*1454 FILLER_11_40
*1455 FILLER_120_14
*1456 FILLER_121_29
*1457 FILLER_121_54
*1458 FILLER_121_7
*1459 FILLER_122_48
*1460 FILLER_123_16
*1461 FILLER_123_30
*1462 FILLER_124_16
*1463 FILLER_124_27
*1464 FILLER_124_34
*1465 FILLER_124_61
*1466 FILLER_125_3
*1467 FILLER_125_42
*1468 FILLER_126_36
*1469 FILLER_127_3
*1470 FILLER_127_33
*1471 FILLER_128_24
*1472 FILLER_128_58
*1473 FILLER_129_39
*1474 FILLER_129_53
*1475 FILLER_129_57
*1476 FILLER_129_6
*1477 FILLER_12_27
*1478 FILLER_12_36
*1479 FILLER_12_60
*1480 FILLER_130_23
*1481 FILLER_130_27
*1482 FILLER_130_37
*1483 FILLER_130_48
*1484 FILLER_130_55
*1485 FILLER_130_9
*1486 FILLER_13_13
*1487 FILLER_13_3
*1488 FILLER_13_54
*1489 FILLER_14_7
*1490 FILLER_15_35
*1491 FILLER_16_20
*1492 FILLER_16_29
*1493 FILLER_16_37
*1494 FILLER_16_61
*1495 FILLER_17_55
*1496 FILLER_17_61
*1497 FILLER_18_3
*1498 FILLER_19_55
*1499 FILLER_19_57
*1500 FILLER_1_30
*1501 FILLER_1_55
*1502 FILLER_1_57
*1503 FILLER_20_12
*1504 FILLER_20_46
*1505 FILLER_21_10
*1506 FILLER_21_57
*1507 FILLER_22_13
*1508 FILLER_22_61
*1509 FILLER_23_23
*1510 FILLER_23_57
*1511 FILLER_23_7
*1512 FILLER_25_57
*1513 FILLER_27_11
*1514 FILLER_27_57
*1515 FILLER_28_27
*1516 FILLER_28_3
*1517 FILLER_29_31
*1518 FILLER_29_41
*1519 FILLER_29_44
*1520 FILLER_29_57
*1521 FILLER_29_7
*1522 FILLER_2_19
*1523 FILLER_2_57
*1524 FILLER_2_9
*1525 FILLER_30_13
*1526 FILLER_30_27
*1527 FILLER_31_30
*1528 FILLER_31_39
*1529 FILLER_31_51
*1530 FILLER_31_55
*1531 FILLER_31_57
*1532 FILLER_32_27
*1533 FILLER_32_32
*1534 FILLER_32_44
*1535 FILLER_32_55
*1536 FILLER_32_7
*1537 FILLER_33_13
*1538 FILLER_33_17
*1539 FILLER_33_21
*1540 FILLER_33_25
*1541 FILLER_33_3
*1542 FILLER_34_14
*1543 FILLER_34_26
*1544 FILLER_34_59
*1545 FILLER_35_28
*1546 FILLER_35_39
*1547 FILLER_35_46
*1548 FILLER_36_27
*1549 FILLER_36_32
*1550 FILLER_37_13
*1551 FILLER_37_21
*1552 FILLER_37_55
*1553 FILLER_38_31
*1554 FILLER_38_46
*1555 FILLER_38_55
*1556 FILLER_38_61
*1557 FILLER_39_32
*1558 FILLER_39_41
*1559 FILLER_39_53
*1560 FILLER_39_57
*1561 FILLER_3_20
*1562 FILLER_3_61
*1563 FILLER_40_36
*1564 FILLER_41_35
*1565 FILLER_42_37
*1566 FILLER_42_48
*1567 FILLER_43_23
*1568 FILLER_43_38
*1569 FILLER_43_47
*1570 FILLER_43_55
*1571 FILLER_44_54
*1572 FILLER_45_21
*1573 FILLER_45_3
*1574 FILLER_46_27
*1575 FILLER_47_23
*1576 FILLER_47_36
*1577 FILLER_48_29
*1578 FILLER_48_43
*1579 FILLER_49_3
*1580 FILLER_49_59
*1581 FILLER_4_10
*1582 FILLER_4_24
*1583 FILLER_4_38
*1584 FILLER_4_56
*1585 FILLER_50_23
*1586 FILLER_50_39
*1587 FILLER_50_47
*1588 FILLER_50_52
*1589 FILLER_51_40
*1590 FILLER_51_55
*1591 FILLER_52_27
*1592 FILLER_52_7
*1593 FILLER_53_10
*1594 FILLER_54_61
*1595 FILLER_55_61
*1596 FILLER_55_7
*1597 FILLER_56_7
*1598 FILLER_57_41
*1599 FILLER_57_55
*1600 FILLER_57_57
*1601 FILLER_58_15
*1602 FILLER_58_18
*1603 FILLER_58_26
*1604 FILLER_58_29
*1605 FILLER_58_42
*1606 FILLER_58_52
*1607 FILLER_58_60
*1608 FILLER_58_9
*1609 FILLER_59_26
*1610 FILLER_59_55
*1611 FILLER_59_61
*1612 FILLER_5_3
*1613 FILLER_5_40
*1614 FILLER_5_45
*1615 FILLER_5_51
*1616 FILLER_60_22
*1617 FILLER_60_6
*1618 FILLER_61_43
*1619 FILLER_61_59
*1620 FILLER_61_6
*1621 FILLER_62_27
*1622 FILLER_62_38
*1623 FILLER_62_51
*1624 FILLER_62_58
*1625 FILLER_62_6
*1626 FILLER_63_14
*1627 FILLER_63_25
*1628 FILLER_63_42
*1629 FILLER_63_60
*1630 FILLER_64_22
*1631 FILLER_64_29
*1632 FILLER_64_61
*1633 FILLER_65_29
*1634 FILLER_65_37
*1635 FILLER_65_42
*1636 FILLER_65_46
*1637 FILLER_66_21
*1638 FILLER_66_48
*1639 FILLER_66_54
*1640 FILLER_66_57
*1641 FILLER_66_61
*1642 FILLER_66_7
*1643 FILLER_67_21
*1644 FILLER_67_57
*1645 FILLER_68_3
*1646 FILLER_68_35
*1647 FILLER_69_25
*1648 FILLER_69_41
*1649 FILLER_69_47
*1650 FILLER_69_55
*1651 FILLER_69_6
*1652 FILLER_69_61
*1653 FILLER_6_20
*1654 FILLER_6_29
*1655 FILLER_6_38
*1656 FILLER_6_9
*1657 FILLER_70_14
*1658 FILLER_70_19
*1659 FILLER_70_23
*1660 FILLER_70_45
*1661 FILLER_70_6
*1662 FILLER_70_61
*1663 FILLER_71_44
*1664 FILLER_71_55
*1665 FILLER_71_6
*1666 FILLER_73_16
*1667 FILLER_73_28
*1668 FILLER_73_32
*1669 FILLER_73_52
*1670 FILLER_73_61
*1671 FILLER_74_10
*1672 FILLER_74_18
*1673 FILLER_74_26
*1674 FILLER_74_29
*1675 FILLER_74_41
*1676 FILLER_75_20
*1677 FILLER_75_39
*1678 FILLER_76_27
*1679 FILLER_76_3
*1680 FILLER_76_37
*1681 FILLER_76_52
*1682 FILLER_77_11
*1683 FILLER_77_57
*1684 FILLER_78_13
*1685 FILLER_78_16
*1686 FILLER_78_27
*1687 FILLER_78_3
*1688 FILLER_78_35
*1689 FILLER_78_47
*1690 FILLER_78_53
*1691 FILLER_78_59
*1692 FILLER_78_8
*1693 FILLER_79_14
*1694 FILLER_79_18
*1695 FILLER_79_26
*1696 FILLER_79_3
*1697 FILLER_79_34
*1698 FILLER_79_43
*1699 FILLER_7_13
*1700 FILLER_7_20
*1701 FILLER_7_32
*1702 FILLER_7_44
*1703 FILLER_80_24
*1704 FILLER_80_29
*1705 FILLER_80_3
*1706 FILLER_80_33
*1707 FILLER_80_61
*1708 FILLER_81_21
*1709 FILLER_81_3
*1710 FILLER_81_31
*1711 FILLER_81_39
*1712 FILLER_81_49
*1713 FILLER_82_21
*1714 FILLER_82_3
*1715 FILLER_82_36
*1716 FILLER_82_41
*1717 FILLER_82_51
*1718 FILLER_82_61
*1719 FILLER_83_15
*1720 FILLER_83_21
*1721 FILLER_83_3
*1722 FILLER_83_33